*Heading
** Job name: BP-1 Model name: BP-1
** Generated by: Abaqus/CAE 2022
*Preprint, echo=NO, model=NO, history=NO, contact=NO
**
** PARTS
**
*Part, name=Box
*Node
      1,  -19.9500008,        37.25,           0.
      2,  -19.9500008,        37.25,        1200.
      3,           0.,        37.25,        1200.
      4,           0.,        37.25,           0.
      5,  -19.9500008,        37.25,        1800.
      6,       -99.75,        37.25,        1200.
      7,       -99.75,        37.25,        1800.
      8,  -19.9500008,       -37.25,        1800.
      9,  -19.9500008,       -37.25,        1200.
     10,           0.,       -37.25,        1200.
     11,           0.,       -37.25,        1800.
     12,  -19.9500008,       -37.25,           0.
     13,       -99.75,       -37.25,        1200.
     14,       -99.75,       -37.25,           0.
     15,   19.9500008,        37.25,           0.
     16,   19.9500008,        37.25,        1200.
     17,        99.75,        37.25,        1200.
     18,        99.75,        37.25,           0.
     19,   19.9500008,        37.25,        1800.
     20,           0.,        37.25,        1800.
** ... 10840 like lines cut
*Element, type=S4R
  1,    1,   31, 1961,  270
  2,   31,   32, 1962, 1961
  3,   32,   33, 1963, 1962
  4,   33,   34, 1964, 1963
  5,   34,   35, 1965, 1964
  6,   35,   36, 1966, 1965
  7,   36,   37, 1967, 1966
  8,   37,   38, 1968, 1967
  9,   38,   39, 1969, 1968
 10,   39,   40, 1970, 1969
 11,   40,   41, 1971, 1970
 12,   41,   42, 1972, 1971
 13,   42,   43, 1973, 1972
 14,   43,   44, 1974, 1973
 15,   44,   45, 1975, 1974
 16,   45,   46, 1976, 1975
 17,   46,   47, 1977, 1976
 18,   47,   48, 1978, 1977
 19,   48,   49, 1979, 1978
 20,   49,   50, 1980, 1979
** ... 10960 like lines cut
*Nset, nset=faces-all, generate
     1,  10860,      1
*Elset, elset=faces-all, generate
     1,  10980,      1
** Section: Section-shell
*Shell Section, elset=faces-all, material=Alu
0.5, 5
*End Part
**  
**
** ASSEMBLY
**
*Assembly, name=Assembly
**  
*Instance, name=Box, part=Box
          0.,           0.,           0.
          0.,           0.,           0., 0.577350269189626, 0.577350269189626, 0.577350269189626,         120.
*End Instance
**  
*Node
      1,           0.,           0.,           0.
*Node
      2,        1800.,           0.,           0.
*Nset, nset=CONTACT-POINT, instance=Box
    2,    3,   16,  150, 1086
*Elset, elset=CONTACT-POINT, instance=Box
  120,  240, 2820, 2880, 6301, 6361, 9361, 9481
*Nset, nset=EDGES1, instance=Box
    1,    4,   12,   14,   15,   18,   25,   26,   27,   30,  270,  768,  769,  770,  771,  772
  773,  774, 1020, 1021, 1022, 1023, 1024, 1025, 1026, 1518, 1644, 1645, 1646, 1647, 1648, 1649
 1716, 1717, 1718, 1719, 1720, 1721, 1722, 1807, 1808, 1809, 1810, 1811, 1812, 1813, 1814, 1941
 1942, 1943, 1944, 1945, 1946, 1947, 1955, 1956, 1957, 1958, 1959, 1960
*Elset, elset=EDGES1, instance=Box
     1,   121,   841,   961,  1081,  1201,  1321,  1441,  1561,  1681,  1801,  1921,  2041,  2161,  2281,  2401
  2521,  2641,  3361,  3481,  4434,  4435,  4436,  4437,  4438,  4439,  4440,  5040,  5160,  5280,  5400,  5520
  5640,  5760,  5880,  6960,  7080,  7200,  7320,  7440,  7560,  7680,  7800,  7920,  8040,  9354,  9355,  9356
  9357,  9358,  9359,  9360,  9480,  9600, 10974, 10975, 10976, 10977, 10978, 10979, 10980
*Nset, nset=EDGES2, instance=Box
    5,    7,    8,   11,   19,   20,   21,   24,   28,   29,  396,  397,  398,  399,  400,  401
  402,  522, 1146, 1272, 1273, 1274, 1275, 1276, 1277, 1278, 1650, 1651, 1652, 1653, 1654, 1655
 1656, 1729, 1730, 1731, 1732, 1733, 1734, 1735, 1801, 1802, 1803, 1804, 1805, 1806, 1934, 1935
 1936, 1937, 1938, 1939, 1940, 1948, 1949, 1950, 1951, 1952, 1953, 1954
*Elset, elset=EDGES2, instance=Box
   241,   301,   361,   421,   481,   541,   601,   661,   721,   781,  2761,  2821,  2881,  2941,  3001,  3061
  3121,  3181,  3241,  3301,  4500,  4560,  4620,  4680,  4740,  4800,  4860,  4920,  6294,  6295,  6296,  6297
  6298,  6299,  6300,  6360,  6420,  6834,  6835,  6836,  6837,  6838,  6839,  6840,  8100,  8160,  8220,  8280
  8340,  8400,  8460,  8520, 10014, 10015, 10016, 10017, 10018, 10019, 10020, 10080, 10140
*Nset, nset=RF1
 1,
*Nset, nset=RF2
 2,
*Surface, type=NODE, name=EDGES1_CNS_, internal
EDGES1, 1.
*Surface, type=NODE, name=EDGES2_CNS_, internal
EDGES2, 1.
** Constraint: Constraint-1
*MPC
BEAM, EDGES1, RF1
** Constraint: Constraint-2
*MPC
BEAM, EDGES2, RF2
*End Assembly
** 
** MATERIALS
** 
*Material, name=Alu
*Elastic
70000., 0.33
** 
** BOUNDARY CONDITIONS
** 
** Name: BC1 Type: Displacement/Rotation
*Boundary
RF1, 1, 1
RF1, 2, 2
RF1, 3, 3
RF1, 4, 4
RF1, 5, 5
RF1, 6, 6
** Name: BC2 Type: Displacement/Rotation
*Boundary
RF2, 1, 1
RF2, 2, 2
RF2, 3, 3
RF2, 4, 4
RF2, 5, 5
RF2, 6, 6
** Name: BC3 Type: Displacement/Rotation
*Boundary
** ----------------------------------------------------------------
** 
** STEP: Step-Buck
** 
*Step, name=Step-Buck, nlgeom=NO, perturbation
*Buckle
2, , 4, 500
** 
** BOUNDARY CONDITIONS
** 
** Name: BC1 Type: Displacement/Rotation
*Boundary, op=NEW, load case=1
RF1, 1, 1
RF1, 2, 2
RF1, 3, 3
RF1, 4, 4
RF1, 6, 6
*Boundary, op=NEW, load case=2
RF1, 1, 1
RF1, 2, 2
RF1, 3, 3
RF1, 4, 4
RF1, 6, 6
** Name: BC2 Type: Displacement/Rotation
*Boundary, op=NEW, load case=1
RF2, 2, 2
RF2, 4, 4
RF2, 5, 5
RF2, 6, 6
*Boundary, op=NEW, load case=2
RF2, 2, 2
RF2, 4, 4
RF2, 5, 5
RF2, 6, 6
** Name: BC3 Type: Displacement/Rotation
*Boundary, op=NEW, load case=1
CONTACT-POINT, 3, 3, -1.
*Boundary, op=NEW, load case=2
CONTACT-POINT, 3, 3, -1.
** 
** OUTPUT REQUESTS
** 
*Restart, write, frequency=0
** 
** FIELD OUTPUT: F-Output-1
** 
*Output, field, variable=PRESELECT
*End Step
** ----------------------------------------------------------------
** 
** STEP: Step-Stat
** 
*Step, name=Step-Stat, nlgeom=NO
*Static
1., 1., 1e-05, 1.
** 
** BOUNDARY CONDITIONS
** 
** Name: BC1 Type: Displacement/Rotation
*Boundary, op=NEW
RF1, 1, 1
RF1, 2, 2
RF1, 3, 3
RF1, 4, 4
RF1, 6, 6
** Name: BC2 Type: Displacement/Rotation
*Boundary, op=NEW
RF2, 2, 2
RF2, 4, 4
RF2, 5, 5
RF2, 6, 6
** Name: BC3 Type: Displacement/Rotation
*Boundary, op=NEW
CONTACT-POINT, 3, 3, -1.
** 
** OUTPUT REQUESTS
** 
*Restart, write, frequency=0
** 
** FIELD OUTPUT: F-Output-2
** 
*Output, field, variable=PRESELECT
** 
** HISTORY OUTPUT: H-Output-1
** 
*Output, history, variable=PRESELECT
*End Step
