*Heading
** Job name: BP-1 Model name: BP-1
** Generated by: Abaqus/CAE 2022
*Preprint, echo=NO, model=NO, history=NO, contact=NO
**
** PARTS
**
*Part, name=Box
*Node
      1,       -59.75,       -37.25,   1159.90002
      2,  -20.0499992,       -37.25,   1159.90002
      3,  -20.0499992,       -37.25,   1240.09998
      4,       -59.75,       -37.25,   1240.09998
      5,       -89.75,        37.25,   1159.90002
      6,       -89.75,        37.25,           0.
      7,       -59.75,       -37.25,           0.
      8,       -99.75,        37.25,   1159.90002
      9,       -89.75,        37.25,   1240.09998
     10,       -99.75,        37.25,   1240.09998
     11,   20.0499992,       -37.25,   1159.90002
     12,   20.0499992,       -37.25,   1240.09998
     13,  -20.0499992,        37.25,   1159.90002
     14,  -20.0499992,        37.25,   1240.09998
     15,        59.75,       -37.25,   1159.90002
     16,        59.75,       -37.25,   1240.09998
     17,   20.0499992,        37.25,   1159.90002
     18,   20.0499992,        37.25,   1240.09998
     19,        89.75,        37.25,   1159.90002
     20,        89.75,        37.25,   1240.09998
** ... 2580 like lines cut
*Element, type=S4R
1,    1,   41, 1065,   48
2,   41,    2,   42, 1065
3,   48, 1065, 1066,   47
4, 1065,   42,   43, 1066
5,   47, 1066, 1067,   46
6, 1066,   43,   44, 1067
7,   46, 1067,   45,    4
8, 1067,   44,    3,   45
  9,    1,   49, 1068,  180
 10,   49,   50, 1069, 1068
 11,   50,   51, 1070, 1069
 12,   51,    5,   52, 1070
 13,  180, 1068, 1071,  179
 14, 1068, 1069, 1072, 1071
 15, 1069, 1070, 1073, 1072
 16, 1070,   52,   53, 1073
 17,  179, 1071, 1074,  178
 18, 1071, 1072, 1075, 1074
 19, 1072, 1073, 1076, 1075
 20, 1073,   53,   54, 1076
** ... 2554 like lines cut
*Nset, nset=faces-all, generate
    1,  2600,     1
*Elset, elset=faces-all, generate
    1,  2574,     1
** Section: Section-shell
*Shell Section, elset=faces-all, material=Alu
1.14672, 5
*End Part
**  
**
** ASSEMBLY
**
*Assembly, name=Assembly
**  
*Instance, name=Box, part=Box
          0.,           0.,           0.
          0.,           0.,           0., 0.577350269189626, 0.577350269189626, 0.577350269189626,         120.
*End Instance
**  
*Node
      1,           0.,           0.,           0.
*Node
      2,        1800.,           0.,           0.
*Nset, nset=CONTACT-SURFACE, instance=Box
   13,   14,   17,   18,  195,  196,  197,  206,  207,  208,  209,  210, 1272, 1273, 1274
*Elset, elset=CONTACT-SURFACE, instance=Box, generate
 301,  308,    1
*Nset, nset=EDGES1, instance=Box
    6,    7,   22,   23,   34,   35,   36,   37,   38,   40,  115,  116,  117,  641,  642,  643
  707,  771,  835,  992,  993,  994, 1058, 1059, 1060, 1061
*Elset, elset=EDGES1, instance=Box
  261,  262,  263,  264,  404, 1328, 1329, 1330, 1331, 1458, 1459, 1586, 1587, 1714, 1715, 1779
 2063, 2064, 2065, 2066, 2319, 2320, 2321, 2322, 2449, 2450
*Nset, nset=EDGES2, instance=Box
   24,   25,   26,   27,   28,   29,   30,   31,   32,   39,  385,  506,  537,  538,  539,  570
  601,  632,  633,  634,  635,  636,  637, 1062, 1063, 1064
*Elset, elset=EDGES2, instance=Box
  481,  482,  513,  574,  575,  696,  697,  698,  699,  760,  761,  822,  823,  944,  945,  946
  947, 1068, 1069, 1070, 1071, 1810, 2571, 2572, 2573, 2574
*Nset, nset=RF1
 1,
*Nset, nset=RF2
 2,
*Surface, type=NODE, name=EDGES1_CNS_, internal
EDGES1, 1.
*Surface, type=NODE, name=EDGES2_CNS_, internal
EDGES2, 1.
** Constraint: Constraint-1
*MPC
BEAM, EDGES1, RF1
** Constraint: Constraint-2
*MPC
BEAM, EDGES2, RF2
*Nonstructural Mass, elset=CONTACT-SURFACE, units=TOTAL MASS
0.05, 
*End Assembly
** 
** MATERIALS
** 
*Material, name=Alu
*Density
 2.7e-09,
*Elastic
70000., 0.33
*Material, name=Carbon/Epoxy(a)
*Density
 1.6e-09,
*Elastic, type=ENGINEERING CONSTANTS
130000.,10000.,10000.,  0.28,  0.28,   0.5, 4500., 4500.
 3500.,
** 
** BOUNDARY CONDITIONS
** 
** Name: BC1 Type: Displacement/Rotation
*Boundary
RF1, 1, 1
RF1, 2, 2
RF1, 3, 3
RF1, 4, 4
RF1, 5, 5
RF1, 6, 6
** Name: BC2 Type: Displacement/Rotation
*Boundary
RF2, 1, 1
RF2, 2, 2
RF2, 3, 3
RF2, 4, 4
RF2, 5, 5
RF2, 6, 6
** ----------------------------------------------------------------
** 
** STEP: Step-Buck
** 
*Step, name=Step-Buck, nlgeom=NO, perturbation
*Buckle
2, , 4, 700
** 
** BOUNDARY CONDITIONS
** 
** Name: BC1 Type: Displacement/Rotation
*Boundary, op=NEW, load case=1
RF1, 1, 1
RF1, 2, 2
RF1, 3, 3
RF1, 4, 4
RF1, 6, 6
*Boundary, op=NEW, load case=2
RF1, 1, 1
RF1, 2, 2
RF1, 3, 3
RF1, 4, 4
RF1, 6, 6
** Name: BC2 Type: Displacement/Rotation
*Boundary, op=NEW, load case=1
RF2, 2, 2
RF2, 4, 4
RF2, 5, 5
RF2, 6, 6
*Boundary, op=NEW, load case=2
RF2, 2, 2
RF2, 4, 4
RF2, 5, 5
RF2, 6, 6
** 
** LOADS
** 
** Name: Load-1   Type: Gravity
*Dload, op=NEW
, GRAV, 9810., 0., 0., -1.
** 
** OUTPUT REQUESTS
** 
*Restart, write, frequency=0
** 
** FIELD OUTPUT: F-Output-1
** 
*Output, field, variable=PRESELECT
*End Step
** ----------------------------------------------------------------
** 
** STEP: Step-Stat
** 
*Step, name=Step-Stat, nlgeom=NO
*Static
1., 1., 1e-05, 1.
** 
** BOUNDARY CONDITIONS
** 
** Name: BC1 Type: Displacement/Rotation
*Boundary, op=NEW
RF1, 1, 1
RF1, 2, 2
RF1, 3, 3
RF1, 4, 4
RF1, 6, 6
** Name: BC2 Type: Displacement/Rotation
*Boundary, op=NEW
RF2, 2, 2
RF2, 4, 4
RF2, 5, 5
RF2, 6, 6
** 
** LOADS
** 
** Name: Load-2   Type: Gravity
*Dload, op=NEW
, GRAV, 9810., 0., 0., -1.
** 
** OUTPUT REQUESTS
** 
*Restart, write, frequency=0
** 
** FIELD OUTPUT: F-Output-2
** 
*Output, field, variable=PRESELECT
** 
** HISTORY OUTPUT: H-Output-1
** 
*Output, history, variable=PRESELECT
*End Step
