1

   Abaqus 2022                                  Date 31-mar-2025   Time 18:33:21
   For use by NORGES TEKNISK NATURVITENSKAPELIGE UNIVERSITET under license from Dassault Systemes or its subsidiary.

                                                                                 
                                                                                 
 STEP    1     INCREMENT     1     STEP TIME    0.00    


                        S T E P       1     C A L C U L A T I O N   O F   E I G E N V A L U E S

                                            F O R   B U C K L I N G   P R E D I C T I O N



                                                                                          

     THE SUBSPACE ITERATION METHOD IS USED FOR THIS ANALYSIS
     NUMBER OF EIGENVALUES                      2
     MAXIMUM NUMBER OF ITERATIONS                    500
     NUMBER OF VECTORS IN ITERATION                    4
     THE BUCKLING MODE CONSTRAINTS 
      ARE DEFINED AS LOAD CASE 2
                              ONLY INITIAL STRESS EFFECTS ARE INCLUDED IN THE
                              STIFFNESS MATRIX

     THIS IS A LINEAR PERTURBATION STEP.
     ALL LOADS ARE DEFINED AS CHANGE IN LOAD TO THE REFERENCE STATE

     EXTRAPOLATION WILL NOT BE USED

     CHARACTERISTIC ELEMENT LENGTH      10.3    

     DETAILS REGARDING ACTUAL SOLUTION WAVEFRONT REQUESTED

     DETAILED OUTPUT OF DIAGNOSTICS TO DATABASE REQUESTED

     PRINT OF INCREMENT NUMBER, TIME, ETC., TO THE MESSAGE FILE EVERY     1  INCREMENTS
 
	SYMMETRIC DIRECT SPARSE SOLVER RUNNING ON
 	1 HOST:        1 MPI RANK  x 1 THREAD
 	NUMBER OF EQUATIONS:     64452
 	NUMBER OF RHS:           1
 	NUMBER OF FLOPS:         5.255e+09

     CHECK POINT   START OF SOLVER    

     CHECK POINT  END OF SOLVER       

       ELAPSED USER TIME (SEC)      =  0.70000    
       ELAPSED SYSTEM TIME (SEC)    =  0.10000    
       ELAPSED TOTAL CPU TIME (SEC) =  0.80000    
       ELAPSED WALLCLOCK TIME (SEC) =          1
 
     ITERATION 1
      1       -1.704965e+02    
      2       1.806009e+02     
      3       -3.466162e+02    
      4       3.505202e+02     
 
     NUMBER OF EIGENVALUES CONVERGED UPTO THIS ITERATION = 0
 
     ITERATION 2
      1       -2.488988e+01    
      2       2.679861e+01     
      3       3.528705e+01     
      4       -3.554364e+01    
 
     NUMBER OF EIGENVALUES CONVERGED UPTO THIS ITERATION = 0
 
     ITERATION 3
      1       -1.308057e+01    
      2       1.547571e+01     
      3       -2.091091e+01    
      4       2.682816e+01     
 
     NUMBER OF EIGENVALUES CONVERGED UPTO THIS ITERATION = 0
 
     ITERATION 4
      1       -9.698676e+00    
      2       1.112198e+01     
      3       -1.556555e+01    
      4       2.540522e+01     
 
     NUMBER OF EIGENVALUES CONVERGED UPTO THIS ITERATION = 0
 
     ITERATION 5
      1       -8.123550e+00    
      2       8.931275e+00     
      3       -1.240333e+01    
      4       2.481144e+01     
 
     NUMBER OF EIGENVALUES CONVERGED UPTO THIS ITERATION = 0
 
     ITERATION 6
      1       -7.181842e+00    
      2       7.667003e+00     
      3       -1.030296e+01    
      4       2.478448e+01     
 
     NUMBER OF EIGENVALUES CONVERGED UPTO THIS ITERATION = 0
 
     ITERATION 7
      1       -6.542860e+00    
      2       6.886923e+00     
      3       -8.878231e+00    
      4       2.523560e+01     
 
     NUMBER OF EIGENVALUES CONVERGED UPTO THIS ITERATION = 0
 
     ITERATION 8
      1       -6.074019e+00    
      2       6.383955e+00     
      3       -7.916956e+00    
      4       2.608444e+01     
 
     NUMBER OF EIGENVALUES CONVERGED UPTO THIS ITERATION = 0
 
     ITERATION 9
      1       -5.707413e+00    
      2       6.046443e+00     
      3       -7.282977e+00    
      4       2.726801e+01     
 
     NUMBER OF EIGENVALUES CONVERGED UPTO THIS ITERATION = 0
 
     ITERATION 10
      1       -5.406050e+00    
      2       5.810717e+00     
      3       -6.884516e+00    
      4       2.873069e+01     
 
     NUMBER OF EIGENVALUES CONVERGED UPTO THIS ITERATION = 0
 
     ITERATION 11
      1       -5.152402e+00    
      2       5.639542e+00     
      3       -6.656150e+00    
      4       3.041155e+01     
 
     NUMBER OF EIGENVALUES CONVERGED UPTO THIS ITERATION = 0
 
     ITERATION 12
      1       -4.939259e+00    
      2       5.510672e+00     
      3       -6.550755e+00    
      4       3.223563e+01     
 
     NUMBER OF EIGENVALUES CONVERGED UPTO THIS ITERATION = 0
 
     ITERATION 13
      1       -4.762439e+00    
      2       5.410458e+00     
      3       -6.536151e+00    
      4       3.411022e+01     
 
     NUMBER OF EIGENVALUES CONVERGED UPTO THIS ITERATION = 0
 
     ITERATION 14
      1       -4.617783e+00    
      2       5.330256e+00     
      3       -6.591517e+00    
      4       3.592721e+01     
 
     NUMBER OF EIGENVALUES CONVERGED UPTO THIS ITERATION = 0
 
     ITERATION 15
      1       -4.500835e+00    
      2       5.264391e+00     
      3       -6.703654e+00    
      4       3.757136e+01     
 
     NUMBER OF EIGENVALUES CONVERGED UPTO THIS ITERATION = 0
 
     ITERATION 16
      1       -4.407190e+00    
      2       5.209001e+00     
      3       -6.864114e+00    
      4       3.893315e+01     
 
     NUMBER OF EIGENVALUES CONVERGED UPTO THIS ITERATION = 0
 
     ITERATION 17
      1       -4.332780e+00    
      2       5.161364e+00     
      3       -7.067327e+00    
      4       3.992285e+01     
 
     NUMBER OF EIGENVALUES CONVERGED UPTO THIS ITERATION = 0
 
     ITERATION 18
      1       -4.274018e+00    
      2       5.119504e+00     
      3       -7.309407e+00    
      4       4.048163e+01     
 
     NUMBER OF EIGENVALUES CONVERGED UPTO THIS ITERATION = 0
 
     ITERATION 19
      1       -4.227833e+00    
      2       5.081955e+00     
      3       -7.587371e+00    
      4       4.058648e+01     
 
     NUMBER OF EIGENVALUES CONVERGED UPTO THIS ITERATION = 0
 
     ITERATION 20
      1       -4.191657e+00    
      2       5.047607e+00     
      3       -7.898579e+00    
      4       4.024830e+01     
 
     NUMBER OF EIGENVALUES CONVERGED UPTO THIS ITERATION = 0
 
     ITERATION 21
      1       -4.163380e+00    
      2       5.015614e+00     
      3       -8.240292e+00    
      4       3.950471e+01     
 
     NUMBER OF EIGENVALUES CONVERGED UPTO THIS ITERATION = 0
 
     ITERATION 22
      1       -4.141299e+00    
      2       4.985324e+00     
      3       -8.609279e+00    
      4       3.841082e+01     
 
     NUMBER OF EIGENVALUES CONVERGED UPTO THIS ITERATION = 0
 
     ITERATION 23
      1       -4.124052e+00    
      2       4.956239e+00     
      3       -9.001462e+00    
      4       3.703045e+01     
 
     NUMBER OF EIGENVALUES CONVERGED UPTO THIS ITERATION = 0
 
     ITERATION 24
      1       -4.110564e+00    
      2       4.927982e+00     
      3       -9.411594e+00    
      4       3.542954e+01     
 
     NUMBER OF EIGENVALUES CONVERGED UPTO THIS ITERATION = 0
 
     ITERATION 25
      1       -4.099992e+00    
      2       4.900271e+00     
      3       -9.833021e+00    
      4       3.367192e+01     
 
     NUMBER OF EIGENVALUES CONVERGED UPTO THIS ITERATION = 0
 
     ITERATION 26
      1       -4.091679e+00    
      2       4.872900e+00     
      3       -1.025755e+01    
      4       3.181683e+01     
 
     NUMBER OF EIGENVALUES CONVERGED UPTO THIS ITERATION = 0
 
     ITERATION 27
      1       -4.085119e+00    
      2       4.845731e+00     
      3       -1.067554e+01    
      4       2.991762e+01     
 
     NUMBER OF EIGENVALUES CONVERGED UPTO THIS ITERATION = 0
 
     ITERATION 28
      1       -4.079917e+00    
      2       4.818672e+00     
      3       -1.107618e+01    
      4       2.802086e+01     
 
     NUMBER OF EIGENVALUES CONVERGED UPTO THIS ITERATION = 0
 
     ITERATION 29
      1       -4.075772e+00    
      2       4.791675e+00     
      3       -1.144811e+01    
      4       2.616564e+01     
 
     NUMBER OF EIGENVALUES CONVERGED UPTO THIS ITERATION = 0
 
     ITERATION 30
      1       -4.072450e+00    
      2       4.764724e+00     
      3       -1.178018e+01    
      4       2.438312e+01     
 
     NUMBER OF EIGENVALUES CONVERGED UPTO THIS ITERATION = 0
 
     ITERATION 31
      1       -4.069773e+00    
      2       4.737829e+00     
      3       -1.206237e+01    
      4       2.269635e+01     
 
     NUMBER OF EIGENVALUES CONVERGED UPTO THIS ITERATION = 0
 
     ITERATION 32
      1       -4.067602e+00    
      2       4.711019e+00     
      3       -1.228665e+01    
      4       2.112060e+01     
 
     NUMBER OF EIGENVALUES CONVERGED UPTO THIS ITERATION = 0
 
     ITERATION 33
      1       -4.065830e+00    
      2       4.684339e+00     
      3       -1.244761e+01    
      4       1.966410e+01     
 
     NUMBER OF EIGENVALUES CONVERGED UPTO THIS ITERATION = 0
 
     ITERATION 34
      1       -4.064375e+00    
      2       4.657844e+00     
      3       -1.254277e+01    
      4       1.832920e+01     
 
     NUMBER OF EIGENVALUES CONVERGED UPTO THIS ITERATION = 0
 
     ITERATION 35
      1       -4.063173e+00    
      2       4.631596e+00     
      3       -1.257263e+01    
      4       1.711366e+01     
 
     NUMBER OF EIGENVALUES CONVERGED UPTO THIS ITERATION = 0
 
     ITERATION 36
      1       -4.062174e+00    
      2       4.605661e+00     
      3       -1.254025e+01    
      4       1.601201e+01     
 
     NUMBER OF EIGENVALUES CONVERGED UPTO THIS ITERATION = 0
 
     ITERATION 37
      1       -4.061338e+00    
      2       4.580103e+00     
      3       -1.245074e+01    
      4       1.501667e+01     
 
     NUMBER OF EIGENVALUES CONVERGED UPTO THIS ITERATION = 0
 
     ITERATION 38
      1       -4.060635e+00    
      2       4.554990e+00     
      3       -1.231065e+01    
      4       1.411897e+01     
 
     NUMBER OF EIGENVALUES CONVERGED UPTO THIS ITERATION = 0
 
     ITERATION 39
      1       -4.060041e+00    
      2       4.530383e+00     
      3       -1.212729e+01    
      4       1.330985e+01     
 
     NUMBER OF EIGENVALUES CONVERGED UPTO THIS ITERATION = 0
 
     ITERATION 40
      1       -4.059536e+00    
      2       4.506342e+00     
      3       -1.190822e+01    
      4       1.258038e+01     
 
     NUMBER OF EIGENVALUES CONVERGED UPTO THIS ITERATION = 0
 
     ITERATION 41
      1       -4.059104e+00    
      2       4.482920e+00     
      3       -1.166080e+01    
      4       1.192211e+01     
 
     NUMBER OF EIGENVALUES CONVERGED UPTO THIS ITERATION = 0
 
     ITERATION 42
      1       -4.058734e+00    
      2       4.460163e+00     
      3       1.132718e+01     
      4       -1.139188e+01    
 
     NUMBER OF EIGENVALUES CONVERGED UPTO THIS ITERATION = 0
 
     ITERATION 43
      1       -4.058415e+00    
      2       4.438114e+00     
      3       1.078849e+01     
      4       -1.110767e+01    
 
     NUMBER OF EIGENVALUES CONVERGED UPTO THIS ITERATION = 0
 
     ITERATION 44
      1       -4.058139e+00    
      2       4.416806e+00     
      3       1.029968e+01     
      4       -1.081358e+01    
 
     NUMBER OF EIGENVALUES CONVERGED UPTO THIS ITERATION = 0
 
     ITERATION 45
      1       -4.057900e+00    
      2       4.396268e+00     
      3       9.855092e+00     
      4       -1.051424e+01    
 
     NUMBER OF EIGENVALUES CONVERGED UPTO THIS ITERATION = 0
 
     ITERATION 46
      1       -4.057692e+00    
      2       4.376519e+00     
      3       9.449745e+00     
      4       -1.021352e+01    
 
     NUMBER OF EIGENVALUES CONVERGED UPTO THIS ITERATION = 0
 
     ITERATION 47
      1       -4.057510e+00    
      2       4.357575e+00     
      3       9.079268e+00     
      4       -9.914578e+00    
 
     NUMBER OF EIGENVALUES CONVERGED UPTO THIS ITERATION = 0
 
     ITERATION 48
      1       -4.057350e+00    
      2       4.339443e+00     
      3       8.739835e+00     
      4       -9.619961e+00    
 
     NUMBER OF EIGENVALUES CONVERGED UPTO THIS ITERATION = 0
 
     ITERATION 49
      1       -4.057210e+00    
      2       4.322128e+00     
      3       8.428101e+00     
      4       -9.331658e+00    
 
     NUMBER OF EIGENVALUES CONVERGED UPTO THIS ITERATION = 0
 
     ITERATION 50
      1       -4.057087e+00    
      2       4.305625e+00     
      3       8.141146e+00     
      4       -9.051194e+00    
 
     NUMBER OF EIGENVALUES CONVERGED UPTO THIS ITERATION = 0
 
     ITERATION 51
      1       -4.056978e+00    
      2       4.289927e+00     
      3       7.876418e+00     
      4       -8.779699e+00    
 
     NUMBER OF EIGENVALUES CONVERGED UPTO THIS ITERATION = 0
 
     ITERATION 52
      1       -4.056881e+00    
      2       4.275024e+00     
      3       7.631688e+00     
      4       -8.517975e+00    
 
     NUMBER OF EIGENVALUES CONVERGED UPTO THIS ITERATION = 0
 
     ITERATION 53
      1       -4.056796e+00    
      2       4.260899e+00     
      3       7.405003e+00     
      4       -8.266557e+00    
 
     NUMBER OF EIGENVALUES CONVERGED UPTO THIS ITERATION = 0
 
     ITERATION 54
      1       -4.056720e+00    
      2       4.247535e+00     
      3       7.194651e+00     
      4       -8.025763e+00    
 
     NUMBER OF EIGENVALUES CONVERGED UPTO THIS ITERATION = 0
 
     ITERATION 55
      1       -4.056652e+00    
      2       4.234909e+00     
      3       6.999128e+00     
      4       -7.795735e+00    
 
     NUMBER OF EIGENVALUES CONVERGED UPTO THIS ITERATION = 0
 
     ITERATION 56
      1       -4.056592e+00    
      2       4.223000e+00     
      3       6.817110e+00     
      4       -7.576479e+00    
 
     NUMBER OF EIGENVALUES CONVERGED UPTO THIS ITERATION = 0
 
     ITERATION 57
      1       -4.056538e+00    
      2       4.211783e+00     
      3       6.647427e+00     
      4       -7.367891e+00    
 
     NUMBER OF EIGENVALUES CONVERGED UPTO THIS ITERATION = 0
 
     ITERATION 58
      1       -4.056490e+00    
      2       4.201230e+00     
      3       6.489045e+00     
      4       -7.169784e+00    
 
     NUMBER OF EIGENVALUES CONVERGED UPTO THIS ITERATION = 0
 
     ITERATION 59
      1       -4.056446e+00    
      2       4.191315e+00     
      3       6.341043e+00     
      4       -6.981909e+00    
 
     NUMBER OF EIGENVALUES CONVERGED UPTO THIS ITERATION = 0
 
     ITERATION 60
      1       -4.056407e+00    
      2       4.182011e+00     
      3       6.202604e+00     
      4       -6.803969e+00    
 
     NUMBER OF EIGENVALUES CONVERGED UPTO THIS ITERATION = 0
 
     ITERATION 61
      1       -4.056372e+00    
      2       4.173288e+00     
      3       6.072994e+00     
      4       -6.635634e+00    
 
     NUMBER OF EIGENVALUES CONVERGED UPTO THIS ITERATION = 0
 
     ITERATION 62
      1       -4.056340e+00    
      2       4.165120e+00     
      3       5.951558e+00     
      4       -6.476549e+00    
 
     NUMBER OF EIGENVALUES CONVERGED UPTO THIS ITERATION = 0
 
     ITERATION 63
      1       -4.056311e+00    
      2       4.157478e+00     
      3       5.837704e+00     
      4       -6.326348e+00    
 
     NUMBER OF EIGENVALUES CONVERGED UPTO THIS ITERATION = 0
 
     ITERATION 64
      1       -4.056285e+00    
      2       4.150335e+00     
      3       5.730898e+00     
      4       -6.184655e+00    
 
     NUMBER OF EIGENVALUES CONVERGED UPTO THIS ITERATION = 0
 
     ITERATION 65
      1       -4.056262e+00    
      2       4.143664e+00     
      3       5.630656e+00     
      4       -6.051091e+00    
 
     NUMBER OF EIGENVALUES CONVERGED UPTO THIS ITERATION = 0
 
     ITERATION 66
      1       -4.056240e+00    
      2       4.137439e+00     
      3       5.536537e+00     
      4       -5.925280e+00    
 
     NUMBER OF EIGENVALUES CONVERGED UPTO THIS ITERATION = 0
 
     ITERATION 67
      1       -4.056220e+00    
      2       4.131634e+00     
      3       5.448140e+00     
      4       -5.806851e+00    
 
     NUMBER OF EIGENVALUES CONVERGED UPTO THIS ITERATION = 0
 
     ITERATION 68
      1       -4.056202e+00    
      2       4.126225e+00     
      3       5.365096e+00     
      4       -5.695437e+00    
 
     NUMBER OF EIGENVALUES CONVERGED UPTO THIS ITERATION = 0
 
     ITERATION 69
      1       -4.056185e+00    
      2       4.121187e+00     
      3       5.287065e+00     
      4       -5.590685e+00    
 
     NUMBER OF EIGENVALUES CONVERGED UPTO THIS ITERATION = 0
 
     ITERATION 70
      1       -4.056170e+00    
      2       4.116499e+00     
      3       5.213735e+00     
      4       -5.492249e+00    
 
     NUMBER OF EIGENVALUES CONVERGED UPTO THIS ITERATION = 0
 
     ITERATION 71
      1       -4.056156e+00    
      2       4.112139e+00     
      3       5.144817e+00     
      4       -5.399795e+00    
 
     NUMBER OF EIGENVALUES CONVERGED UPTO THIS ITERATION = 0
 
     ITERATION 72
      1       -4.056143e+00    
      2       4.108085e+00     
      3       5.080043e+00     
      4       -5.313001e+00    
 
     NUMBER OF EIGENVALUES CONVERGED UPTO THIS ITERATION = 0
 
     ITERATION 73
      1       -4.056131e+00    
      2       4.104319e+00     
      3       5.019162e+00     
      4       -5.231558e+00    
 
     NUMBER OF EIGENVALUES CONVERGED UPTO THIS ITERATION = 0
 
     ITERATION 74
      1       -4.056119e+00    
      2       4.100821e+00     
      3       4.961942e+00     
      4       -5.155168e+00    
 
     NUMBER OF EIGENVALUES CONVERGED UPTO THIS ITERATION = 0
 
     ITERATION 75
      1       -4.056109e+00    
      2       4.097573e+00     
      3       4.908166e+00     
      4       -5.083549e+00    
 
     NUMBER OF EIGENVALUES CONVERGED UPTO THIS ITERATION = 0
 
     ITERATION 76
      1       -4.056099e+00    
      2       4.094560e+00     
      3       4.857630e+00     
      4       -5.016428e+00    
 
     NUMBER OF EIGENVALUES CONVERGED UPTO THIS ITERATION = 0
 
     ITERATION 77
      1       -4.056090e+00    
      2       4.091765e+00     
      3       4.810143e+00     
      4       -4.953547e+00    
 
     NUMBER OF EIGENVALUES CONVERGED UPTO THIS ITERATION = 0
 
     ITERATION 78
      1       -4.056081e+00    
      2       4.089173e+00     
      3       4.765526e+00     
      4       -4.894658e+00    
 
     NUMBER OF EIGENVALUES CONVERGED UPTO THIS ITERATION = 0
 
     ITERATION 79
      1       -4.056072e+00    
      2       4.086770e+00     
      3       4.723611e+00     
      4       -4.839527e+00    
 
     NUMBER OF EIGENVALUES CONVERGED UPTO THIS ITERATION = 0
 
     ITERATION 80
      1       -4.056065e+00    
      2       4.084544e+00     
      3       4.684238e+00     
      4       -4.787932e+00    
 
     NUMBER OF EIGENVALUES CONVERGED UPTO THIS ITERATION = 0
 
     ITERATION 81
      1       -4.056057e+00    
      2       4.082481e+00     
      3       4.647260e+00     
      4       -4.739660e+00    
 
     NUMBER OF EIGENVALUES CONVERGED UPTO THIS ITERATION = 0
 
     ITERATION 82
      1       -4.056050e+00    
      2       4.080571e+00     
      3       4.612534e+00     
      4       -4.694511e+00    
 
     NUMBER OF EIGENVALUES CONVERGED UPTO THIS ITERATION = 0
 
     ITERATION 83
      1       -4.056043e+00    
      2       4.078803e+00     
      3       4.579929e+00     
      4       -4.652294e+00    
 
     NUMBER OF EIGENVALUES CONVERGED UPTO THIS ITERATION = 0
 
     ITERATION 84
      1       -4.056036e+00    
      2       4.077165e+00     
      3       4.549319e+00     
      4       -4.612831e+00    
 
     NUMBER OF EIGENVALUES CONVERGED UPTO THIS ITERATION = 0
 
     ITERATION 85
      1       -4.056030e+00    
      2       4.075650e+00     
      3       4.520587e+00     
      4       -4.575951e+00    
 
     NUMBER OF EIGENVALUES CONVERGED UPTO THIS ITERATION = 0
 
     ITERATION 86
      1       -4.056024e+00    
      2       4.074248e+00     
      3       4.493621e+00     
      4       -4.541493e+00    
 
     NUMBER OF EIGENVALUES CONVERGED UPTO THIS ITERATION = 0
 
     ITERATION 87
      1       -4.056018e+00    
      2       4.072951e+00     
      3       4.468315e+00     
      4       -4.509307e+00    
 
     NUMBER OF EIGENVALUES CONVERGED UPTO THIS ITERATION = 0
 
     ITERATION 88
      1       -4.056012e+00    
      2       4.071751e+00     
      3       4.444572e+00     
      4       -4.479248e+00    
 
     NUMBER OF EIGENVALUES CONVERGED UPTO THIS ITERATION = 0
 
     ITERATION 89
      1       -4.056006e+00    
      2       4.070641e+00     
      3       4.422296e+00     
      4       -4.451183e+00    
 
     NUMBER OF EIGENVALUES CONVERGED UPTO THIS ITERATION = 0
 
     ITERATION 90
      1       -4.056001e+00    
      2       4.069614e+00     
      3       4.401401e+00     
      4       -4.424983e+00    
 
     NUMBER OF EIGENVALUES CONVERGED UPTO THIS ITERATION = 0
 
     ITERATION 91
      1       -4.055995e+00    
      2       4.068665e+00     
      3       4.381803e+00     
      4       -4.400531e+00    
 
     NUMBER OF EIGENVALUES CONVERGED UPTO THIS ITERATION = 0
 
     ITERATION 92
      1       -4.055990e+00    
      2       4.067788e+00     
      3       4.363424e+00     
      4       -4.377714e+00    
 
     NUMBER OF EIGENVALUES CONVERGED UPTO THIS ITERATION = 0
 
     ITERATION 93
      1       -4.055984e+00    
      2       4.066976e+00     
      3       4.346189e+00     
      4       -4.356425e+00    
 
     NUMBER OF EIGENVALUES CONVERGED UPTO THIS ITERATION = 0
 
     ITERATION 94
      1       -4.055979e+00    
      2       4.066226e+00     
      3       4.330029e+00     
      4       -4.336566e+00    
 
     NUMBER OF EIGENVALUES CONVERGED UPTO THIS ITERATION = 0
 
     ITERATION 95
      1       -4.055974e+00    
      2       4.065533e+00     
      3       4.314879e+00     
      4       -4.318044e+00    
 
     NUMBER OF EIGENVALUES CONVERGED UPTO THIS ITERATION = 0
 
     ITERATION 96
      1       -4.055968e+00    
      2       4.064892e+00     
      3       4.300676e+00     
      4       -4.300770e+00    
 
     NUMBER OF EIGENVALUES CONVERGED UPTO THIS ITERATION = 0
 
     ITERATION 97
      1       -4.055963e+00    
      2       4.064299e+00     
      3       -4.284664e+00    
      4       4.287363e+00     
 
     NUMBER OF EIGENVALUES CONVERGED UPTO THIS ITERATION = 0
 
     ITERATION 98
      1       -4.055958e+00    
      2       4.063751e+00     
      3       -4.269648e+00    
      4       4.274884e+00     
 
     NUMBER OF EIGENVALUES CONVERGED UPTO THIS ITERATION = 0
 
     ITERATION 99
      1       -4.055953e+00    
      2       4.063245e+00     
      3       -4.255651e+00    
      4       4.263189e+00     
 
     NUMBER OF EIGENVALUES CONVERGED UPTO THIS ITERATION = 0
 
     ITERATION 100
      1       -4.055947e+00    
      2       4.062776e+00     
      3       -4.242603e+00    
      4       4.252228e+00     
 
     NUMBER OF EIGENVALUES CONVERGED UPTO THIS ITERATION = 0
 
     ITERATION 101
      1       -4.055942e+00    
      2       4.062343e+00     
      3       -4.230444e+00    
      4       4.241957e+00     
 
     NUMBER OF EIGENVALUES CONVERGED UPTO THIS ITERATION = 0
 
     ITERATION 102
      1       -4.055936e+00    
      2       4.061943e+00     
      3       -4.219112e+00    
      4       4.232332e+00     
 
     NUMBER OF EIGENVALUES CONVERGED UPTO THIS ITERATION = 0
 
     ITERATION 103
      1       -4.055931e+00    
      2       4.061572e+00     
      3       -4.208554e+00    
      4       4.223314e+00     
 
     NUMBER OF EIGENVALUES CONVERGED UPTO THIS ITERATION = 0
 
     ITERATION 104
      1       -4.055925e+00    
      2       4.061229e+00     
      3       -4.198716e+00    
      4       4.214864e+00     
 
     NUMBER OF EIGENVALUES CONVERGED UPTO THIS ITERATION = 0
 
     ITERATION 105
      1       -4.055920e+00    
      2       4.060912e+00     
      3       -4.189551e+00    
      4       4.206947e+00     
 
     NUMBER OF EIGENVALUES CONVERGED UPTO THIS ITERATION = 0
 
     ITERATION 106
      1       -4.055914e+00    
      2       4.060619e+00     
      3       -4.181013e+00    
      4       4.199529e+00     
 
     NUMBER OF EIGENVALUES CONVERGED UPTO THIS ITERATION = 0
 
     ITERATION 107
      1       -4.055908e+00    
      2       4.060347e+00     
      3       -4.173061e+00    
      4       4.192580e+00     
 
     NUMBER OF EIGENVALUES CONVERGED UPTO THIS ITERATION = 0
 
     ITERATION 108
      1       -4.055902e+00    
      2       4.060095e+00     
      3       -4.165654e+00    
      4       4.186070e+00     
 
     NUMBER OF EIGENVALUES CONVERGED UPTO THIS ITERATION = 0
 
     ITERATION 109
      1       -4.055896e+00    
      2       4.059862e+00     
      3       -4.158755e+00    
      4       4.179971e+00     
 
     NUMBER OF EIGENVALUES CONVERGED UPTO THIS ITERATION = 0
 
     ITERATION 110
      1       -4.055890e+00    
      2       4.059646e+00     
      3       -4.152331e+00    
      4       4.174257e+00     
 
     NUMBER OF EIGENVALUES CONVERGED UPTO THIS ITERATION = 0
 
     ITERATION 111
      1       -4.055884e+00    
      2       4.059446e+00     
      3       -4.146349e+00    
      4       4.168905e+00     
 
     NUMBER OF EIGENVALUES CONVERGED UPTO THIS ITERATION = 0
 
     ITERATION 112
      1       -4.055877e+00    
      2       4.059260e+00     
      3       -4.140778e+00    
      4       4.163891e+00     
 
     NUMBER OF EIGENVALUES CONVERGED UPTO THIS ITERATION = 0
 
     ITERATION 113
      1       -4.055871e+00    
      2       4.059088e+00     
      3       -4.135591e+00    
      4       4.159194e+00     
 
     NUMBER OF EIGENVALUES CONVERGED UPTO THIS ITERATION = 0
 
     ITERATION 114
      1       -4.055864e+00    
      2       4.058928e+00     
      3       -4.130762e+00    
      4       4.154794e+00     
 
     NUMBER OF EIGENVALUES CONVERGED UPTO THIS ITERATION = 0
 
     ITERATION 115
      1       -4.055857e+00    
      2       4.058779e+00     
      3       -4.126266e+00    
      4       4.150673e+00     
 
     NUMBER OF EIGENVALUES CONVERGED UPTO THIS ITERATION = 0
 
     ITERATION 116
      1       -4.055850e+00    
      2       4.058641e+00     
      3       -4.122081e+00    
      4       4.146812e+00     
 
     NUMBER OF EIGENVALUES CONVERGED UPTO THIS ITERATION = 0
 
     ITERATION 117
      1       -4.055843e+00    
      2       4.058513e+00     
      3       -4.118184e+00    
      4       4.143196e+00     
 
     NUMBER OF EIGENVALUES CONVERGED UPTO THIS ITERATION = 0
 
     ITERATION 118
      1       -4.055835e+00    
      2       4.058393e+00     
      3       -4.114558e+00    
      4       4.139808e+00     
 
     NUMBER OF EIGENVALUES CONVERGED UPTO THIS ITERATION = 0
 
     ITERATION 119
      1       -4.055828e+00    
      2       4.058282e+00     
      3       -4.111182e+00    
      4       4.136635e+00     
 
     NUMBER OF EIGENVALUES CONVERGED UPTO THIS ITERATION = 0
 
     ITERATION 120
      1       -4.055820e+00    
      2       4.058179e+00     
      3       -4.108040e+00    
      4       4.133663e+00     
 
     NUMBER OF EIGENVALUES CONVERGED UPTO THIS ITERATION = 0
 
     ITERATION 121
      1       -4.055812e+00    
      2       4.058082e+00     
      3       -4.105115e+00    
      4       4.130878e+00     
 
     NUMBER OF EIGENVALUES CONVERGED UPTO THIS ITERATION = 0
 
     ITERATION 122
      1       -4.055804e+00    
      2       4.057992e+00     
      3       -4.102394e+00    
      4       4.128269e+00     
 
     NUMBER OF EIGENVALUES CONVERGED UPTO THIS ITERATION = 0
 
     ITERATION 123
      1       -4.055795e+00    
      2       4.057908e+00     
      3       -4.099861e+00    
      4       4.125826e+00     
 
     NUMBER OF EIGENVALUES CONVERGED UPTO THIS ITERATION = 0
 
     ITERATION 124
      1       -4.055787e+00    
      2       4.057830e+00     
      3       -4.097504e+00    
      4       4.123537e+00     
 
     NUMBER OF EIGENVALUES CONVERGED UPTO THIS ITERATION = 0
 
     ITERATION 125
      1       -4.055778e+00    
      2       4.057757e+00     
      3       -4.095311e+00    
      4       4.121392e+00     
 
     NUMBER OF EIGENVALUES CONVERGED UPTO THIS ITERATION = 0
 
     ITERATION 126
      1       -4.055769e+00    
      2       4.057689e+00     
      3       -4.093270e+00    
      4       4.119383e+00     
 
     NUMBER OF EIGENVALUES CONVERGED UPTO THIS ITERATION = 0
 
     ITERATION 127
      1       -4.055761e+00    
      2       4.057625e+00     
      3       -4.091372e+00    
      4       4.117501e+00     
 
     NUMBER OF EIGENVALUES CONVERGED UPTO THIS ITERATION = 0
 
     ITERATION 128
      1       -4.055751e+00    
      2       4.057565e+00     
      3       -4.089605e+00    
      4       4.115738e+00     
 
     NUMBER OF EIGENVALUES CONVERGED UPTO THIS ITERATION = 0
 
     ITERATION 129
      1       -4.055742e+00    
      2       4.057509e+00     
      3       -4.087961e+00    
      4       4.114085e+00     
 
     NUMBER OF EIGENVALUES CONVERGED UPTO THIS ITERATION = 0
 
     ITERATION 130
      1       -4.055733e+00    
      2       4.057457e+00     
      3       -4.086432e+00    
      4       4.112537e+00     
 
     NUMBER OF EIGENVALUES CONVERGED UPTO THIS ITERATION = 0
 
     ITERATION 131
      1       -4.055723e+00    
      2       4.057408e+00     
      3       -4.085010e+00    
      4       4.111087e+00     
 
     NUMBER OF EIGENVALUES CONVERGED UPTO THIS ITERATION = 0
 
     ITERATION 132
      1       -4.055714e+00    
      2       4.057362e+00     
      3       -4.083687e+00    
      4       4.109728e+00     
 
     NUMBER OF EIGENVALUES CONVERGED UPTO THIS ITERATION = 0
 
     ITERATION 133
      1       -4.055704e+00    
      2       4.057319e+00     
      3       -4.082456e+00    
      4       4.108455e+00     
 
     NUMBER OF EIGENVALUES CONVERGED UPTO THIS ITERATION = 0
 
     ITERATION 134
      1       -4.055695e+00    
      2       4.057279e+00     
      3       -4.081311e+00    
      4       4.107261e+00     
 
     NUMBER OF EIGENVALUES CONVERGED UPTO THIS ITERATION = 0
 
     ITERATION 135
      1       -4.055685e+00    
      2       4.057241e+00     
      3       -4.080247e+00    
      4       4.106143e+00     
 
     NUMBER OF EIGENVALUES CONVERGED UPTO THIS ITERATION = 0
 
     ITERATION 136
      1       -4.055675e+00    
      2       4.057206e+00     
      3       -4.079256e+00    
      4       4.105095e+00     
 
     NUMBER OF EIGENVALUES CONVERGED UPTO THIS ITERATION = 0
 
     ITERATION 137
      1       -4.055666e+00    
      2       4.057173e+00     
      3       -4.078335e+00    
      4       4.104113e+00     
 
     NUMBER OF EIGENVALUES CONVERGED UPTO THIS ITERATION = 0
 
     ITERATION 138
      1       -4.055656e+00    
      2       4.057142e+00     
      3       -4.077479e+00    
      4       4.103192e+00     
 
     NUMBER OF EIGENVALUES CONVERGED UPTO THIS ITERATION = 0
 
     ITERATION 139
      1       -4.055647e+00    
      2       4.057112e+00     
      3       -4.076682e+00    
      4       4.102330e+00     
 
     NUMBER OF EIGENVALUES CONVERGED UPTO THIS ITERATION = 0
 
     ITERATION 140
      1       -4.055637e+00    
      2       4.057085e+00     
      3       -4.075941e+00    
      4       4.101521e+00     
 
     NUMBER OF EIGENVALUES CONVERGED UPTO THIS ITERATION = 0
 
     ITERATION 141
      1       -4.055628e+00    
      2       4.057059e+00     
      3       -4.075252e+00    
      4       4.100763e+00     
 
     NUMBER OF EIGENVALUES CONVERGED UPTO THIS ITERATION = 0
 
     ITERATION 142
      1       -4.055619e+00    
      2       4.057035e+00     
      3       -4.074612e+00    
      4       4.100052e+00     
 
     NUMBER OF EIGENVALUES CONVERGED UPTO THIS ITERATION = 0
 
     ITERATION 143
      1       -4.055610e+00    
      2       4.057013e+00     
      3       -4.074016e+00    
      4       4.099386e+00     
 
     NUMBER OF EIGENVALUES CONVERGED UPTO THIS ITERATION = 0
 
     ITERATION 144
      1       -4.055601e+00    
      2       4.056992e+00     
      3       -4.073462e+00    
      4       4.098761e+00     
 
     NUMBER OF EIGENVALUES CONVERGED UPTO THIS ITERATION = 0
 
     ITERATION 145
      1       -4.055592e+00    
      2       4.056972e+00     
      3       -4.072947e+00    
      4       4.098176e+00     
 
     NUMBER OF EIGENVALUES CONVERGED UPTO THIS ITERATION = 0
 
     ITERATION 146
      1       -4.055583e+00    
      2       4.056954e+00     
      3       -4.072468e+00    
      4       4.097627e+00     
 
     NUMBER OF EIGENVALUES CONVERGED UPTO THIS ITERATION = 0
 
     ITERATION 147
      1       -4.055575e+00    
      2       4.056936e+00     
      3       -4.072023e+00    
      4       4.097112e+00     
 
     NUMBER OF EIGENVALUES CONVERGED UPTO THIS ITERATION = 0
 
     ITERATION 148
      1       -4.055567e+00    
      2       4.056920e+00     
      3       -4.071609e+00    
      4       4.096629e+00     
 
     NUMBER OF EIGENVALUES CONVERGED UPTO THIS ITERATION = 0
 
     ITERATION 149
      1       -4.055559e+00    
      2       4.056905e+00     
      3       -4.071224e+00    
      4       4.096176e+00     
 
     NUMBER OF EIGENVALUES CONVERGED UPTO THIS ITERATION = 0
 
     ITERATION 150
      1       -4.055551e+00    
      2       4.056891e+00     
      3       -4.070865e+00    
      4       4.095751e+00     
 
     NUMBER OF EIGENVALUES CONVERGED UPTO THIS ITERATION = 0
 
     ITERATION 151
      1       -4.055544e+00    
      2       4.056877e+00     
      3       -4.070533e+00    
      4       4.095353e+00     
 
     NUMBER OF EIGENVALUES CONVERGED UPTO THIS ITERATION = 0
 
     ITERATION 152
      1       -4.055537e+00    
      2       4.056865e+00     
      3       -4.070223e+00    
      4       4.094979e+00     
 
     NUMBER OF EIGENVALUES CONVERGED UPTO THIS ITERATION = 0
 
     ITERATION 153
      1       -4.055530e+00    
      2       4.056853e+00     
      3       -4.069935e+00    
      4       4.094629e+00     
 
     NUMBER OF EIGENVALUES CONVERGED UPTO THIS ITERATION = 0
 
     ITERATION 154
      1       -4.055524e+00    
      2       4.056842e+00     
      3       -4.069667e+00    
      4       4.094300e+00     
 
     NUMBER OF EIGENVALUES CONVERGED UPTO THIS ITERATION = 0
 
     ITERATION 155
      1       -4.055517e+00    
      2       4.056832e+00     
      3       -4.069418e+00    
      4       4.093991e+00     
 
     NUMBER OF EIGENVALUES CONVERGED UPTO THIS ITERATION = 0
 
     ITERATION 156
      1       -4.055511e+00    
      2       4.056822e+00     
      3       -4.069187e+00    
      4       4.093702e+00     
 
     NUMBER OF EIGENVALUES CONVERGED UPTO THIS ITERATION = 0
 
     ITERATION 157
      1       -4.055505e+00    
      2       4.056814e+00     
      3       -4.068972e+00    
      4       4.093430e+00     
 
     NUMBER OF EIGENVALUES CONVERGED UPTO THIS ITERATION = 0
 
     ITERATION 158
      1       -4.055500e+00    
      2       4.056805e+00     
      3       -4.068771e+00    
      4       4.093175e+00     
 
     NUMBER OF EIGENVALUES CONVERGED UPTO THIS ITERATION = 0
 
     ITERATION 159
      1       -4.055495e+00    
      2       4.056797e+00     
      3       -4.068585e+00    
      4       4.092936e+00     
 
     NUMBER OF EIGENVALUES CONVERGED UPTO THIS ITERATION = 0
 
     ITERATION 160
      1       -4.055490e+00    
      2       4.056790e+00     
      3       -4.068412e+00    
      4       4.092712e+00     
 
     NUMBER OF EIGENVALUES CONVERGED UPTO THIS ITERATION = 0
 
     ITERATION 161
      1       -4.055485e+00    
      2       4.056783e+00     
      3       -4.068251e+00    
      4       4.092501e+00     
 
     NUMBER OF EIGENVALUES CONVERGED UPTO THIS ITERATION = 0
 
     ITERATION 162
      1       -4.055481e+00    
      2       4.056777e+00     
      3       -4.068101e+00    
      4       4.092304e+00     
 
     NUMBER OF EIGENVALUES CONVERGED UPTO THIS ITERATION = 0
 
     ITERATION 163
      1       -4.055476e+00    
      2       4.056771e+00     
      3       -4.067962e+00    
      4       4.092118e+00     
 
     NUMBER OF EIGENVALUES CONVERGED UPTO THIS ITERATION = 0
 
     ITERATION 164
      1       -4.055472e+00    
      2       4.056766e+00     
      3       -4.067832e+00    
      4       4.091944e+00     
 
     NUMBER OF EIGENVALUES CONVERGED UPTO THIS ITERATION = 1
 
     ITERATION 165
      1       -4.055469e+00    
      2       4.056760e+00     
      3       -4.067711e+00    
      4       4.091780e+00     
 
     NUMBER OF EIGENVALUES CONVERGED UPTO THIS ITERATION = 1
 
     ITERATION 166
      1       -4.055465e+00    
      2       4.056756e+00     
      3       -4.067599e+00    
      4       4.091627e+00     
 
     NUMBER OF EIGENVALUES CONVERGED UPTO THIS ITERATION = 1
 
     ITERATION 167
      1       -4.055462e+00    
      2       4.056751e+00     
      3       -4.067495e+00    
      4       4.091483e+00     
 
     NUMBER OF EIGENVALUES CONVERGED UPTO THIS ITERATION = 1
 
     ITERATION 168
      1       -4.055458e+00    
      2       4.056747e+00     
      3       -4.067398e+00    
      4       4.091347e+00     
 
     NUMBER OF EIGENVALUES CONVERGED UPTO THIS ITERATION = 1
 
     ITERATION 169
      1       -4.055455e+00    
      2       4.056743e+00     
      3       -4.067307e+00    
      4       4.091220e+00     
 
     NUMBER OF EIGENVALUES CONVERGED UPTO THIS ITERATION = 2
1

   Abaqus 2022                                  Date 31-mar-2025   Time 18:34:32
   For use by NORGES TEKNISK NATURVITENSKAPELIGE UNIVERSITET under license from Dassault Systemes or its subsidiary.

                                                                                 
                                                                                 
 STEP    2     INCREMENT     1     STEP TIME    0.00    


                        S T E P       2     S T A T I C   A N A L Y S I S


                                                                                          

     AUTOMATIC TIME CONTROL WITH -
          A SUGGESTED INITIAL TIME INCREMENT OF                 1.00    
          AND A TOTAL TIME PERIOD OF                            1.00    
          THE MINIMUM TIME INCREMENT ALLOWED IS                1.000E-05
          THE MAXIMUM TIME INCREMENT ALLOWED IS                 1.00    

     LINEAR EQUATION SOLVER TYPE         DIRECT SPARSE

 CONVERGENCE TOLERANCE PARAMETERS FOR FORCE    
     CRITERION FOR RESIDUAL FORCE     FOR A NONLINEAR PROBLEM          5.000E-03
     CRITERION FOR DISP.    CORRECTION IN A NONLINEAR PROBLEM          1.000E-02
     INIT. VALUE OF TIME AVG. FORCE     IS TIME AVG. FORCE     IN PREVIOUS STEP
     AVERAGE FORCE     IS TIME AVERAGE FORCE    
     ALTERNATE CRIT. FOR RESIDUAL FORCE     FOR A NONLINEAR PROBLEM    2.000E-02
     CRITERION FOR ZERO FORCE     RELATIVE TO TIME AVRG. FORCE         1.000E-05
     CRITERION FOR RESIDUAL FORCE     WHEN THERE IS ZERO FLUX          1.000E-05
     CRITERION FOR DISP.    CORRECTION WHEN THERE IS ZERO FLUX         1.000E-03
     CRITERION FOR RESIDUAL FORCE     FOR A LINEAR INCREMENT           1.000E-08
     FIELD CONVERSION RATIO                                             1.00    
     CRITERION FOR ZERO FORCE     REL. TO TIME AVRG. MAX. FORCE        1.000E-05
     CRITERION FOR ZERO DISP.    RELATIVE TO CHARACTERISTIC LENGTH     1.000E-08

 CONVERGENCE TOLERANCE PARAMETERS FOR MOMENT   
     CRITERION FOR RESIDUAL MOMENT    FOR A NONLINEAR PROBLEM          5.000E-03
     CRITERION FOR ROTATION CORRECTION IN A NONLINEAR PROBLEM          1.000E-02
     INIT. VALUE OF TIME AVG. MOMENT    IS TIME AVG. MOMENT    IN PREVIOUS STEP
     AVERAGE MOMENT    IS TIME AVERAGE MOMENT   
     ALTERNATE CRIT. FOR RESIDUAL MOMENT    FOR A NONLINEAR PROBLEM    2.000E-02
     CRITERION FOR ZERO MOMENT    RELATIVE TO TIME AVRG. MOMENT        1.000E-05
     CRITERION FOR RESIDUAL MOMENT    WHEN THERE IS ZERO FLUX          1.000E-05
     CRITERION FOR ROTATION CORRECTION WHEN THERE IS ZERO FLUX         1.000E-03
     CRITERION FOR RESIDUAL MOMENT    FOR A LINEAR INCREMENT           1.000E-08
     FIELD CONVERSION RATIO                                             1.00    
     CRITERION FOR ZERO MOMENT    REL. TO TIME AVRG. MAX. MOMENT       1.000E-05

     VOLUMETRIC STRAIN COMPATIBILITY TOLERANCE FOR HYBRID SOLIDS       1.000E-05
     AXIAL STRAIN COMPATIBILITY TOLERANCE FOR HYBRID BEAMS             1.000E-05
     TRANS. SHEAR STRAIN COMPATIBILITY TOLERANCE FOR HYBRID BEAMS      1.000E-05
     SOFT CONTACT CONSTRAINT COMPATIBILITY TOLERANCE FOR P>P0          5.000E-03
     SOFT CONTACT CONSTRAINT COMPATIBILITY TOLERANCE FOR P=0.0         0.100    
     CONTACT FORCE ERROR TOLERANCE FOR CONVERT SDI=YES                 1.00    
     DISPLACEMENT COMPATIBILITY TOLERANCE FOR DCOUP ELEMENTS           1.000E-05
     ROTATION COMPATIBILITY TOLERANCE FOR DCOUP ELEMENTS               1.000E-05

 EQUILIBRIUM WILL BE CHECKED FOR SEVERE DISCONTINUITY ITERATIONS

 TIME INCREMENTATION CONTROL PARAMETERS:
     FIRST EQUILIBRIUM ITERATION FOR CONSECUTIVE DIVERGENCE CHECK              4
     EQUILIBRIUM ITERATION AT WHICH LOG. CONVERGENCE RATE CHECK BEGINS         8
     EQUILIBRIUM ITERATION AFTER WHICH ALTERNATE RESIDUAL IS USED              9
     MAXIMUM EQUILIBRIUM ITERATIONS ALLOWED                                   16
     EQUILIBRIUM ITERATION COUNT FOR CUT-BACK IN NEXT INCREMENT               10
     MAXIMUM EQUILIB. ITERS IN TWO INCREMENTS FOR TIME INCREMENT INCREASE      4
     MAXIMUM ITERATIONS FOR SEVERE DISCONTINUITIES                            50
     MAXIMUM ATTEMPTS ALLOWED IN AN INCREMENT                                  5
     MAXIMUM DISCON. ITERS IN TWO INCREMENTS FOR TIME INCREMENT INCREASE      50
     MAXIMUM CONTACT AUGMENTATIONS FOR *SURFACE BEHAVIOR,AUGMENTED LAGRANGE   50
     CUT-BACK FACTOR AFTER DIVERGENCE                                 0.2500    
     CUT-BACK FACTOR FOR TOO SLOW CONVERGENCE                         0.5000    
     CUT-BACK FACTOR AFTER TOO MANY EQUILIBRIUM ITERATIONS            0.7500    
     CUT-BACK FACTOR AFTER TOO MANY SEVERE DISCONTINUITY ITERATIONS   0.2500    
     CUT-BACK FACTOR AFTER PROBLEMS IN ELEMENT ASSEMBLY               0.2500    
     INCREASE FACTOR AFTER TWO INCREMENTS THAT CONVERGE QUICKLY        1.500    
     MAX. TIME INCREMENT INCREASE FACTOR ALLOWED                       1.500    
     MAX. TIME INCREMENT INCREASE FACTOR ALLOWED (DYNAMICS)            1.250    
     MAX. TIME INCREMENT INCREASE FACTOR ALLOWED (DIFFUSION)           2.000    
     MINIMUM TIME INCREMENT RATIO FOR EXTRAPOLATION TO OCCUR          0.1000    
     MAX. RATIO OF TIME INCREMENT TO STABILITY LIMIT                   1.000    
     FRACTION OF STABILITY LIMIT FOR NEW TIME INCREMENT               0.9500    
     TIME INCREMENT INCREASE FACTOR BEFORE A TIME POINT                1.000    
     GLOBAL STABILIZATION CONTROL IS NOT USED

          PRINT OF INCREMENT NUMBER, TIME, ETC., EVERY    1  INCREMENTS

     THE MAXIMUM NUMBER OF INCREMENTS IN THIS STEP IS                     100

     LINEAR EXTRAPOLATION WILL BE USED

     CHARACTERISTIC ELEMENT LENGTH      10.3    

     DETAILS REGARDING ACTUAL SOLUTION WAVEFRONT REQUESTED

     DETAILED OUTPUT OF DIAGNOSTICS TO DATABASE REQUESTED

     PRINT OF INCREMENT NUMBER, TIME, ETC., TO THE MESSAGE FILE EVERY     1  INCREMENTS

     COLLECTING MODEL CONSTRAINT INFORMATION FOR OVERCONSTRAINT CHECKS

     COLLECTING STEP CONSTRAINT INFORMATION FOR OVERCONSTRAINT CHECKS


  INCREMENT     1 STARTS. ATTEMPT NUMBER  1, TIME INCREMENT   1.00    
 
	SYMMETRIC DIRECT SPARSE SOLVER RUNNING ON
 	1 HOST:        1 MPI RANK  x 1 THREAD
 	NUMBER OF EQUATIONS:     64452
 	NUMBER OF RHS:           1
 	NUMBER OF FLOPS:         5.393e+09

     CHECK POINT   START OF SOLVER    

     CHECK POINT  END OF SOLVER       

       ELAPSED USER TIME (SEC)      =  0.90000    
       ELAPSED SYSTEM TIME (SEC)    =   0.0000    
       ELAPSED TOTAL CPU TIME (SEC) =  0.90000    
       ELAPSED WALLCLOCK TIME (SEC) =          1

               CONVERGENCE CHECKS FOR EQUILIBRIUM ITERATION     1


 AVERAGE FORCE                       1.08       TIME AVG. FORCE        1.08    
 LARGEST RESIDUAL FORCE            -4.673E-10   AT NODE          2   DOF  3
   INSTANCE:                                                                                 
 LARGEST INCREMENT OF DISP.         -1.14       AT NODE       7119   DOF  3
   INSTANCE: BOX                                                                             
 LARGEST CORRECTION TO DISP.        -1.14       AT NODE       7119   DOF  3
   INSTANCE: BOX                                                                             
          THE FORCE     EQUILIBRIUM RESPONSE WAS LINEAR IN THIS INCREMENT

 AVERAGE MOMENT                     7.735E-03   TIME AVG. MOMENT      7.735E-03
 LARGEST RESIDUAL MOMENT           -2.018E-09   AT NODE          1   DOF  5
   INSTANCE:                                                                                 
 LARGEST INCREMENT OF ROTATION      1.004E-03   AT NODE       1517   DOF  5
   INSTANCE: BOX                                                                             
 LARGEST CORRECTION TO ROTATION     1.004E-03   AT NODE       1517   DOF  5
   INSTANCE: BOX                                                                             
          ROTATION CORRECTION TOO LARGE COMPARED TO ROTATION INCREMENT
 
	SYMMETRIC DIRECT SPARSE SOLVER RUNNING ON
 	1 HOST:        1 MPI RANK  x 1 THREAD
 	NUMBER OF EQUATIONS:     64452
 	NUMBER OF RHS:           1
 	NUMBER OF FLOPS:         5.393e+09

     CHECK POINT   START OF SOLVER    

     CHECK POINT  END OF SOLVER       

       ELAPSED USER TIME (SEC)      =  0.80000    
       ELAPSED SYSTEM TIME (SEC)    =   0.0000    
       ELAPSED TOTAL CPU TIME (SEC) =  0.80000    
       ELAPSED WALLCLOCK TIME (SEC) =          1

               CONVERGENCE CHECKS FOR EQUILIBRIUM ITERATION     2


 AVERAGE FORCE                       1.08       TIME AVG. FORCE        1.08    
 LARGEST RESIDUAL FORCE            -4.806E-11   AT NODE          2   DOF  3
   INSTANCE:                                                                                 
 LARGEST INCREMENT OF DISP.         -1.14       AT NODE       7119   DOF  3
   INSTANCE: BOX                                                                             
 LARGEST CORRECTION TO DISP.       -2.813E-11   AT NODE       4408   DOF  3
   INSTANCE: BOX                                                                             
          THE FORCE     EQUILIBRIUM EQUATIONS HAVE CONVERGED

 AVERAGE MOMENT                     7.735E-03   TIME AVG. MOMENT      7.735E-03
 LARGEST RESIDUAL MOMENT            3.010E-10   AT NODE          1   DOF  5
   INSTANCE:                                                                                 
 LARGEST INCREMENT OF ROTATION      1.004E-03   AT NODE       1517   DOF  5
   INSTANCE: BOX                                                                             
 LARGEST CORRECTION TO ROTATION     7.597E-13   AT NODE        315   DOF  4
   INSTANCE: BOX                                                                             
          THE MOMENT    EQUILIBRIUM EQUATIONS HAVE CONVERGED

 ITERATION SUMMARY FOR THE INCREMENT:   2 TOTAL ITERATIONS, OF WHICH
   0 ARE SEVERE DISCONTINUITY ITERATIONS AND  2 ARE EQUILIBRIUM ITERATIONS.

 TIME INCREMENT COMPLETED   1.00    ,  FRACTION OF STEP COMPLETED   1.00    
 STEP TIME COMPLETED        1.00    ,  TOTAL TIME COMPLETED         1.00    


          THE ANALYSIS HAS BEEN COMPLETED



     ANALYSIS SUMMARY:
     TOTAL OF          2  INCREMENTS
                       0  CUTBACKS IN AUTOMATIC INCREMENTATION
                       3  ITERATIONS INCLUDING CONTACT ITERATIONS IF PRESENT
                       3  PASSES THROUGH THE EQUATION SOLVER OF WHICH 
                       3  INVOLVE MATRIX DECOMPOSITION, INCLUDING
                       0  DECOMPOSITION(S) OF THE MASS MATRIX
                       1  REORDERING OF EQUATIONS TO MINIMIZE WAVEFRONT
                       0  ADDITIONAL RESIDUAL EVALUATIONS FOR LINE SEARCHES
                       0  ADDITIONAL OPERATOR EVALUATIONS FOR LINE SEARCHES
                       0  WARNING MESSAGES DURING USER INPUT PROCESSING
                       0  WARNING MESSAGES DURING ANALYSIS
                       0  ANALYSIS WARNINGS ARE NUMERICAL PROBLEM MESSAGES
                       0  ANALYSIS WARNINGS ARE NEGATIVE EIGENVALUE MESSAGES
                       0  ERROR MESSAGES



     JOB TIME SUMMARY
       USER TIME (SEC)      =   66.200    
       SYSTEM TIME (SEC)    =   6.6000    
       TOTAL CPU TIME (SEC) =   72.800    
       WALLCLOCK TIME (SEC) =         75
