*Heading
** Job name: BP-2 Model name: BP-2
** Generated by: Abaqus/CAE 2022
*Preprint, echo=NO, model=NO, history=NO, contact=NO
**
** PARTS
**
*Part, name=Box
*Node
      1,       -59.75,       -37.25,   1159.90002
      2,  -20.0499992,       -37.25,   1159.90002
      3,  -20.0499992,       -37.25,   1240.09998
      4,       -59.75,       -37.25,   1240.09998
      5,       -89.75,        37.25,   1159.90002
      6,       -89.75,        37.25,           0.
      7,       -59.75,       -37.25,           0.
      8,       -99.75,        37.25,   1159.90002
      9,       -89.75,        37.25,   1240.09998
     10,       -99.75,        37.25,   1240.09998
     11,           0.,       -37.25,   1159.90002
     12,           0.,       -37.25,   1240.09998
     13,  -20.0499992,        37.25,   1159.90002
     14,  -20.0499992,        37.25,   1240.09998
     15,   20.0499992,       -37.25,   1159.90002
     16,   20.0499992,       -37.25,   1240.09998
     17,           0.,        37.25,   1159.90002
     18,           0.,        37.25,           0.
     19,           0.,       -37.25,           0.
     20,           0.,        37.25,   1240.09998
** ... 2880 like lines cut
*Element, type=S4R
1,    1,   49, 1269,   56
2,   49,    2,   50, 1269
3,   56, 1269, 1270,   55
4, 1269,   50,   51, 1270
5,   55, 1270, 1271,   54
6, 1270,   51,   52, 1271
7,   54, 1271,   53,    4
8, 1271,   52,    3,   53
  9,    1,   57, 1272,  188
 10,   57,   58, 1273, 1272
 11,   58,   59, 1274, 1273
 12,   59,    5,   60, 1274
 13,  188, 1272, 1275,  187
 14, 1272, 1273, 1276, 1275
 15, 1273, 1274, 1277, 1276
 16, 1274,   60,   61, 1277
 17,  187, 1275, 1278,  186
 18, 1275, 1276, 1279, 1278
 19, 1276, 1277, 1280, 1279
 20, 1277,   61,   62, 1280
** ... 2950 like lines cut
*Nset, nset=faces-all, generate
    1,  2900,     1
*Elset, elset=faces-all, generate
    1,  2970,     1
** Section: Section-shell
*Shell Section, elset=faces-all, material=Alu
0.992552, 5
*End Part
**  
**
** ASSEMBLY
**
*Assembly, name=Assembly
**  
*Instance, name=Box, part=Box
          0.,           0.,           0.
          0.,           0.,           0., 0.577350269189626, 0.577350269189626, 0.577350269189626,         120.
*End Instance
**  
*Node
      1,           0.,           0.,           0.
*Node
      2,        1800.,           0.,           0.
*Nset, nset=CONTACT-SURFACE, instance=Box
  13,  14,  17,  20,  23,  24, 201, 202, 203, 342, 343, 344, 350, 351, 352
*Elset, elset=CONTACT-SURFACE, instance=Box
 549, 550, 551, 552, 561, 562, 563, 564
*Nset, nset=EDGES1, instance=Box
    6,    7,   18,   19,   28,   29,   42,   43,   44,   45,   46,   48,  123,  124,  125,  276
  277,  278,  844,  845,  846,  910, 1193, 1194, 1195, 1259, 1260, 1261, 1262
*Elset, elset=EDGES1, instance=Box
  261,  262,  263,  264,  545,  546,  547,  548,  660, 1600, 1601, 1602, 1603, 1730, 1731, 1795
 1859, 1923, 1987, 2271, 2272, 2273, 2274, 2338, 2591, 2592, 2593, 2594, 2721, 2722
*Nset, nset=EDGES2, instance=Box
   30,   31,   32,   33,   34,   35,   36,   37,   38,   39,   40,   47,  527,  678,  679,  680
  774,  835,  836,  837,  838,  839,  840, 1263, 1264, 1265, 1266, 1267, 1268
*Elset, elset=EDGES2, instance=Box
  737,  738,  769,  800,  921,  922,  923,  924,  971, 1002, 1063, 1064, 1095, 1216, 1217, 1218
 1219, 1340, 1341, 1342, 1343, 2018, 2843, 2844, 2845, 2846, 2967, 2968, 2969, 2970
*Nset, nset=RF1
 1,
*Nset, nset=RF2
 2,
*Surface, type=NODE, name=EDGES1_CNS_, internal
EDGES1, 1.
*Surface, type=NODE, name=EDGES2_CNS_, internal
EDGES2, 1.
** Constraint: Constraint-1
*MPC
BEAM, EDGES1, RF1
** Constraint: Constraint-2
*MPC
BEAM, EDGES2, RF2
*Nonstructural Mass, elset=CONTACT-SURFACE, units=TOTAL MASS
0.05, 
*End Assembly
** 
** MATERIALS
** 
*Material, name=Alu
*Density
 2.7e-09,
*Elastic
70000., 0.33
*Material, name=Carbon/Epoxy(a)
*Density
 1.6e-09,
*Elastic, type=ENGINEERING CONSTANTS
130000.,10000.,10000.,  0.28,  0.28,   0.5, 4500., 4500.
 3500.,
** 
** BOUNDARY CONDITIONS
** 
** Name: BC1 Type: Displacement/Rotation
*Boundary
RF1, 1, 1
RF1, 2, 2
RF1, 3, 3
RF1, 4, 4
RF1, 5, 5
RF1, 6, 6
** Name: BC2 Type: Displacement/Rotation
*Boundary
RF2, 1, 1
RF2, 2, 2
RF2, 3, 3
RF2, 4, 4
RF2, 5, 5
RF2, 6, 6
** ----------------------------------------------------------------
** 
** STEP: Step-Buck
** 
*Step, name=Step-Buck, nlgeom=NO, perturbation
*Buckle
2, , 4, 700
** 
** BOUNDARY CONDITIONS
** 
** Name: BC1 Type: Displacement/Rotation
*Boundary, op=NEW, load case=1
RF1, 1, 1
RF1, 2, 2
RF1, 3, 3
RF1, 4, 4
RF1, 6, 6
*Boundary, op=NEW, load case=2
RF1, 1, 1
RF1, 2, 2
RF1, 3, 3
RF1, 4, 4
RF1, 6, 6
** Name: BC2 Type: Displacement/Rotation
*Boundary, op=NEW, load case=1
RF2, 2, 2
RF2, 4, 4
RF2, 5, 5
RF2, 6, 6
*Boundary, op=NEW, load case=2
RF2, 2, 2
RF2, 4, 4
RF2, 5, 5
RF2, 6, 6
** 
** LOADS
** 
** Name: Load-1   Type: Gravity
*Dload, op=NEW
, GRAV, 9810., 0., 0., -1.
** 
** OUTPUT REQUESTS
** 
*Restart, write, frequency=0
** 
** FIELD OUTPUT: F-Output-1
** 
*Output, field, variable=PRESELECT
*End Step
** ----------------------------------------------------------------
** 
** STEP: Step-Stat
** 
*Step, name=Step-Stat, nlgeom=NO
*Static
1., 1., 1e-05, 1.
** 
** BOUNDARY CONDITIONS
** 
** Name: BC1 Type: Displacement/Rotation
*Boundary, op=NEW
RF1, 1, 1
RF1, 2, 2
RF1, 3, 3
RF1, 4, 4
RF1, 6, 6
** Name: BC2 Type: Displacement/Rotation
*Boundary, op=NEW
RF2, 2, 2
RF2, 4, 4
RF2, 5, 5
RF2, 6, 6
** 
** LOADS
** 
** Name: Load-2   Type: Gravity
*Dload, op=NEW
, GRAV, 9810., 0., 0., -1.
** 
** OUTPUT REQUESTS
** 
*Restart, write, frequency=0
** 
** FIELD OUTPUT: F-Output-2
** 
*Output, field, variable=PRESELECT
** 
** HISTORY OUTPUT: H-Output-1
** 
*Output, history, variable=PRESELECT
*End Step
