*Heading
** Job name: BP-3 Model name: BP-3
** Generated by: Abaqus/CAE 2022
*Preprint, echo=NO, model=NO, history=NO, contact=NO
**
** PARTS
**
*Part, name=Box
*Node
      1,       -99.75,        37.25,   1159.90002
      2,       -89.75,        37.25,   1159.90002
      3,       -89.75,        37.25,   1240.09998
      4,       -99.75,        37.25,   1240.09998
      5,       -59.75,       -37.25,   1159.90002
      6,  -20.0499992,       -37.25,   1159.90002
      7,  -20.0499992,       -37.25,   1240.09998
      8,       -59.75,       -37.25,   1240.09998
      9,       -89.75,        37.25,           0.
     10,       -59.75,       -37.25,           0.
     11,  -20.0499992,        37.25,   1159.90002
     12,  -20.0499992,        37.25,   1240.09998
     13,   -19.916666,       -37.25,   1159.90002
     14,   -19.916666,       -37.25,   1240.09998
     15,   -19.916666,        37.25,   1159.90002
     16,   -19.916666,        37.25,   1240.09998
     17,    19.916666,       -37.25,   1159.90002
     18,    19.916666,       -37.25,   1240.09998
     19,   -19.916666,        37.25,           0.
     20,   -19.916666,       -37.25,           0.
** ... 3580 like lines cut
*Element, type=S4R
1,  1,  2, 57, 62
2, 62, 57, 58, 61
3, 61, 58, 59, 60
4, 60, 59,  3,  4
 5,    5,   63, 1489,   70
 6,   63,    6,   64, 1489
 7,   70, 1489, 1490,   69
 8, 1489,   64,   65, 1490
 9,   69, 1490, 1491,   68
10, 1490,   65,   66, 1491
11,   68, 1491,   67,    8
12, 1491,   66,    7,   67
 13,    5,   71, 1492,  202
 14,   71,   72, 1493, 1492
 15,   72,   73, 1494, 1493
 16,   73,    2,   74, 1494
 17,  202, 1492, 1495,  201
 18, 1492, 1493, 1496, 1495
 19, 1493, 1494, 1497, 1496
 20, 1494,   74,   75, 1497
** ... 3742 like lines cut
*Nset, nset=faces-all, generate
    1,  3600,     1
*Elset, elset=faces-all, generate
    1,  3762,     1
** Section: Section-shell
*Shell Section, elset=faces-all, material=Alu
0.874923, 5
*End Part
**  
**
** ASSEMBLY
**
*Assembly, name=Assembly
**  
*Instance, name=Box, part=Box
          0.,           0.,           0.
          0.,           0.,           0., 0.577350269189626, 0.577350269189626, 0.577350269189626,         120.
*End Instance
**  
*Node
      1,           0.,           0.,           0.
*Node
      2,        1800.,           0.,           0.
*Nset, nset=CONTACT-SURFACE, instance=Box
   11,   12,   15,   16,   23,   26,   29,   30,  206,  207,  208,  215,  216,  217,  490,  491
  492,  493,  494,  500,  501,  502, 2071, 2072, 2073
*Elset, elset=CONTACT-SURFACE, instance=Box
 289, 290, 291, 292, 817, 818, 819, 820, 821, 822, 823, 824, 833, 834, 835, 836
*Nset, nset=EDGES1, instance=Box
    9,   10,   19,   20,   24,   25,   34,   35,   50,   51,   52,   53,   54,   56,  137,  138
  139,  289,  290,  291,  424,  425,  426, 1059, 1060, 1061, 1125, 1378, 1409, 1410, 1411, 1412
 1476, 1477, 1478, 1479
*Elset, elset=EDGES1, instance=Box
  265,  266,  267,  268,  553,  554,  555,  556,  813,  814,  815,  816,  932, 2012, 2013, 2014
 2015, 2142, 2143, 2207, 2271, 2335, 2399, 2526, 2527, 2811, 2812, 2813, 2814, 2878, 3005, 3006
 3259, 3260, 3261, 3262, 3389, 3390
*Nset, nset=EDGES2, instance=Box
   36,   37,   38,   39,   40,   41,   42,   43,   44,   45,   46,   47,   48,   55,  737,  798
  799,  800,  891,  958,  989, 1050, 1051, 1052, 1053, 1054, 1055, 1480, 1481, 1482, 1483, 1484
 1485, 1486, 1487, 1488
*Elset, elset=EDGES2, instance=Box
  963, 1040, 1041, 1162, 1163, 1164, 1165, 1196, 1227, 1288, 1289, 1352, 1413, 1414, 1475, 1476
 1507, 1628, 1629, 1630, 1631, 1752, 1753, 1754, 1755, 2558, 3511, 3512, 3513, 3514, 3635, 3636
 3637, 3638, 3759, 3760, 3761, 3762
*Nset, nset=RF1
 1,
*Nset, nset=RF2
 2,
*Surface, type=NODE, name=EDGES1_CNS_, internal
EDGES1, 1.
*Surface, type=NODE, name=EDGES2_CNS_, internal
EDGES2, 1.
** Constraint: Constraint-1
*MPC
BEAM, EDGES1, RF1
** Constraint: Constraint-2
*MPC
BEAM, EDGES2, RF2
*Nonstructural Mass, elset=CONTACT-SURFACE, units=TOTAL MASS
0.05, 
*End Assembly
** 
** MATERIALS
** 
*Material, name=Alu
*Density
 2.7e-09,
*Elastic
70000., 0.33
*Material, name=Carbon/Epoxy(a)
*Density
 1.6e-09,
*Elastic, type=ENGINEERING CONSTANTS
130000.,10000.,10000.,  0.28,  0.28,   0.5, 4500., 4500.
 3500.,
** 
** BOUNDARY CONDITIONS
** 
** Name: BC1 Type: Displacement/Rotation
*Boundary
RF1, 1, 1
RF1, 2, 2
RF1, 3, 3
RF1, 4, 4
RF1, 5, 5
RF1, 6, 6
** Name: BC2 Type: Displacement/Rotation
*Boundary
RF2, 1, 1
RF2, 2, 2
RF2, 3, 3
RF2, 4, 4
RF2, 5, 5
RF2, 6, 6
** ----------------------------------------------------------------
** 
** STEP: Step-Buck
** 
*Step, name=Step-Buck, nlgeom=NO, perturbation
*Buckle
2, , 4, 700
** 
** BOUNDARY CONDITIONS
** 
** Name: BC1 Type: Displacement/Rotation
*Boundary, op=NEW, load case=1
RF1, 1, 1
RF1, 2, 2
RF1, 3, 3
RF1, 4, 4
RF1, 6, 6
*Boundary, op=NEW, load case=2
RF1, 1, 1
RF1, 2, 2
RF1, 3, 3
RF1, 4, 4
RF1, 6, 6
** Name: BC2 Type: Displacement/Rotation
*Boundary, op=NEW, load case=1
RF2, 2, 2
RF2, 4, 4
RF2, 5, 5
RF2, 6, 6
*Boundary, op=NEW, load case=2
RF2, 2, 2
RF2, 4, 4
RF2, 5, 5
RF2, 6, 6
** 
** LOADS
** 
** Name: Load-1   Type: Gravity
*Dload, op=NEW
, GRAV, 9810., 0., 0., -1.
** 
** OUTPUT REQUESTS
** 
*Restart, write, frequency=0
** 
** FIELD OUTPUT: F-Output-1
** 
*Output, field, variable=PRESELECT
*End Step
** ----------------------------------------------------------------
** 
** STEP: Step-Stat
** 
*Step, name=Step-Stat, nlgeom=NO
*Static
1., 1., 1e-05, 1.
** 
** BOUNDARY CONDITIONS
** 
** Name: BC1 Type: Displacement/Rotation
*Boundary, op=NEW
RF1, 1, 1
RF1, 2, 2
RF1, 3, 3
RF1, 4, 4
RF1, 6, 6
** Name: BC2 Type: Displacement/Rotation
*Boundary, op=NEW
RF2, 2, 2
RF2, 4, 4
RF2, 5, 5
RF2, 6, 6
** 
** LOADS
** 
** Name: Load-2   Type: Gravity
*Dload, op=NEW
, GRAV, 9810., 0., 0., -1.
** 
** OUTPUT REQUESTS
** 
*Restart, write, frequency=0
** 
** FIELD OUTPUT: F-Output-2
** 
*Output, field, variable=PRESELECT
** 
** HISTORY OUTPUT: H-Output-1
** 
*Output, history, variable=PRESELECT
*End Step
