*Heading
** Job name: Job-1 Model name: BP-1
** Generated by: Abaqus/CAE 2022
*Preprint, echo=NO, model=NO, history=NO, contact=NO
**
** PARTS
**
*Part, name=Box
*Node
      1,       -99.75,        37.25,   1159.90002
      2,       -99.75,       -37.25,   1159.90002
      3,       -99.75,       -37.25,   1240.09998
      4,       -99.75,        37.25,   1240.09998
      5,  -59.8499985,        37.25,   1159.90002
      6,  -59.8499985,        37.25,           0.
      7,       -99.75,        37.25,           0.
      8,  -59.8499985,       -37.25,   1159.90002
      9,  -59.8499985,       -37.25,   1240.09998
     10,  -20.0499992,        37.25,   1159.90002
     11,  -20.0499992,        37.25,           0.
     12,  -59.8499985,        37.25,   1240.09998
     13,        99.75,        37.25,   1159.90002
     14,        99.75,       -37.25,   1159.90002
     15,        99.75,       -37.25,           0.
     16,        99.75,        37.25,           0.
     17,   59.8499985,        37.25,   1159.90002
     18,   59.8499985,        37.25,   1240.09998
     19,        99.75,        37.25,   1240.09998
     20,  -20.0499992,       -37.25,   1159.90002
** ... 3984 like lines cut
*Element, type=S4R
 1,    1,   65, 1569,   76
 2,   65,   66, 1570, 1569
 3,   66,   67, 1571, 1570
 4,   67,    2,   68, 1571
 5,   76, 1569, 1572,   75
 6, 1569, 1570, 1573, 1572
 7, 1570, 1571, 1574, 1573
 8, 1571,   68,   69, 1574
 9,   75, 1572, 1575,   74
10, 1572, 1573, 1576, 1575
11, 1573, 1574, 1577, 1576
12, 1574,   69,   70, 1577
13,   74, 1575,   73,    4
14, 1575, 1576,   72,   73
15, 1576, 1577,   71,   72
16, 1577,   70,    3,   71
 17,    1,   77, 1578,  192
 18,   77,    5,   78, 1578
 19,  192, 1578, 1579,  191
 20, 1578,   78,   79, 1579
** ... 4300 like lines cut
*Nset, nset=faces-all, generate
    1,  4004,     1
*Elset, elset=faces-all, generate
    1,  4320,     1
** Section: Section-shell
*Shell Section, elset=faces-all, material=Alu
0.5, 5
*End Part
**  
**
** ASSEMBLY
**
*Assembly, name=Assembly
**  
*Instance, name=Box, part=Box
          0.,           0.,           0.
          0.,           0.,           0., 0.577350269189626, 0.577350269189626, 0.577350269189626,         120.
*End Instance
**  
*Node
      1,           0.,           0.,           0.
*Node
      2,        1800.,           0.,           0.
*Nset, nset=CONTACT-SURFACE, instance=Box
   10,   22,   24,   27,   28,   29,   36,   46,  572,  573,  574,  575,  576,  577,  649,  714
  715,  716,  961,  962,  963, 1019, 2361, 2362, 2363
*Elset, elset=CONTACT-SURFACE, instance=Box
  695,  696,  697,  698, 1517, 1518, 1519, 1520, 1549, 1550, 1551, 1552, 1553, 1554, 1555, 1556
*Nset, nset=EDGES1, instance=Box
    6,    7,   11,   15,   16,   23,   25,   26,   32,   35,   40,   41,   58,   59,   63,   64
  135,  256,  326,  327,  328,  514,  645,  707,  784, 1193, 1288, 1491, 1549, 1550, 1551, 1556
 1557, 1558, 1559, 1560, 1561, 1562, 1563, 1564, 1565, 1566, 1567, 1568
*Elset, elset=EDGES1, instance=Box
  131,  132,  255,  256,  501,  502,  503,  504,  578,  693,  694,  829,  830,  949,  950, 1097
 1098, 1164, 1838, 2157, 2158, 2409, 2410, 2809, 2810, 2876, 3105, 3106, 3107, 3108, 3391, 3392
 3621, 3622, 3623, 3624, 3853, 3854, 3855, 3856, 4085, 4086, 4087, 4088, 4317, 4318, 4319, 4320
*Nset, nset=EDGES2, instance=Box
   42,   43,   44,   45,   47,   48,   49,   50,   51,   53,   54,   55,   57,   60,   61,   62
  871,  872,  873,  929,  930,  931,  932,  991, 1020, 1021, 1022, 1077, 1078, 1079, 1107, 1163
 1164, 1165, 1201, 1203, 1376, 1404, 1405, 1433, 1552, 1553, 1554, 1555
*Elset, elset=EDGES2, instance=Box
 1273, 1274, 1275, 1276, 1339, 1340, 1449, 1450, 1451, 1452, 1515, 1516, 1548, 1665, 1666, 1667
 1668, 1777, 1778, 1779, 1780, 1893, 1894, 1930, 2039, 2040, 2041, 2042, 2229, 2230, 2293, 2294
 2438, 2497, 2498, 2553, 2554, 2609, 2610, 2638, 2693, 2694, 3163, 3164, 3273, 3274, 3275, 3276
*Nset, nset=RF1
 1,
*Nset, nset=RF2
 2,
*Surface, type=NODE, name=EDGES1_CNS_, internal
EDGES1, 1.
*Surface, type=NODE, name=EDGES2_CNS_, internal
EDGES2, 1.
** Constraint: Constraint-1
*MPC
BEAM, EDGES1, RF1
** Constraint: Constraint-2
*MPC
BEAM, EDGES2, RF2
*Nonstructural Mass, elset=CONTACT-SURFACE, units=TOTAL MASS
0.05, 
*End Assembly
** 
** MATERIALS
** 
*Material, name=Alu
*Density
 2.7e-09,
*Elastic
70000., 0.33
** 
** BOUNDARY CONDITIONS
** 
** Name: BC1 Type: Displacement/Rotation
*Boundary
RF1, 1, 1
RF1, 2, 2
RF1, 3, 3
RF1, 4, 4
RF1, 5, 5
RF1, 6, 6
** Name: BC2 Type: Displacement/Rotation
*Boundary
RF2, 1, 1
RF2, 2, 2
RF2, 3, 3
RF2, 4, 4
RF2, 5, 5
RF2, 6, 6
** ----------------------------------------------------------------
** 
** STEP: Step-Buck
** 
*Step, name=Step-Buck, nlgeom=NO, perturbation
*Buckle
2, , 4, 500
** 
** BOUNDARY CONDITIONS
** 
** Name: BC1 Type: Displacement/Rotation
*Boundary, op=NEW, load case=1
RF1, 1, 1
RF1, 2, 2
RF1, 3, 3
RF1, 4, 4
RF1, 6, 6
*Boundary, op=NEW, load case=2
RF1, 1, 1
RF1, 2, 2
RF1, 3, 3
RF1, 4, 4
RF1, 6, 6
** Name: BC2 Type: Displacement/Rotation
*Boundary, op=NEW, load case=1
RF2, 2, 2
RF2, 4, 4
RF2, 5, 5
RF2, 6, 6
*Boundary, op=NEW, load case=2
RF2, 2, 2
RF2, 4, 4
RF2, 5, 5
RF2, 6, 6
** 
** LOADS
** 
** Name: Load-1   Type: Gravity
*Dload, op=NEW
, GRAV, 9810., 0., 0., -1.
** 
** OUTPUT REQUESTS
** 
*Restart, write, frequency=0
** 
** FIELD OUTPUT: F-Output-1
** 
*Output, field, variable=PRESELECT
*End Step
** ----------------------------------------------------------------
** 
** STEP: Step-Stat
** 
*Step, name=Step-Stat, nlgeom=NO
*Static
1., 1., 1e-05, 1.
** 
** BOUNDARY CONDITIONS
** 
** Name: BC1 Type: Displacement/Rotation
*Boundary, op=NEW
RF1, 1, 1
RF1, 2, 2
RF1, 3, 3
RF1, 4, 4
RF1, 6, 6
** Name: BC2 Type: Displacement/Rotation
*Boundary, op=NEW
RF2, 2, 2
RF2, 4, 4
RF2, 5, 5
RF2, 6, 6
** 
** LOADS
** 
** Name: Load-2   Type: Gravity
*Dload, op=NEW
, GRAV, 9810., 0., 0., -1.
** 
** OUTPUT REQUESTS
** 
*Restart, write, frequency=0
** 
** FIELD OUTPUT: F-Output-2
** 
*Output, field, variable=PRESELECT
** 
** HISTORY OUTPUT: H-Output-1
** 
*Output, history, variable=PRESELECT
*End Step
