1

   Abaqus 2022                                  Date 08-apr-2025   Time 21:33:48
   For use by NORGES TEKNISK NATURVITENSKAPELIGE UNIVERSITET under license from Dassault Systemes or its subsidiary.



                         The Abaqus Software is a product of:

                           Dassault Systemes SIMULIA Corp.
                           1301 Atwood Avenue, Suite 101W
                              Johnston, RI 02919, USA
 


                   The Abaqus Software is available only under license
                   from Dassault Systemes or its subsidiary and may be
                   used or reproduced only in accordance with the terms
                   of such license.
 
                          On machine Håkons_PC 
                          you are authorized to run
                          Abaqus/Standard until 30-Sep-2025

                          Your site id is: 100000000001981 


 
                    For assistance or any other information you may
                    obtain contact information for your local office
                    from the world wide web at:

                      http://www.3ds.com/products/simulia/locations/

 
                * * * * * * * * * * * * * * * * * * * * * * * * * * * * * * 
                *                                                         * 
                *                   *****************                     * 
                *                   *  N O T I C E  *                     * 
                *                   *****************                     * 
                *                                                         * 
                *                                                         * 
                *                       Abaqus 2022                       * 
                *                                                         * 
                *          BUILD ID: 2021_09_15-19.57.30 176069           * 
                *                                                         * 
                *                                                         * 
                *  Please make sure you are using                         * 
                *  release Abaqus 2022 manuals                            * 
                *  plus the notes accompanying this release.              * 
                *                                                         * 
                *                                                         * 
                *                                                         * 
                *                                                         * 
                *                                                         * 
                *   This program may not be used for commercial purposes  * 
                *           without payment of a commercial fee.          * 
                *                                                         * 
                * * * * * * * * * * * * * * * * * * * * * * * * * * * * * * 


 



     PROCESSING PART, INSTANCE, AND ASSEMBLY INFORMATION
   *******************************************************


     END PROCESSING PART, INSTANCE, AND ASSEMBLY INFORMATION
   ***********************************************************




     OPTIONS BEING PROCESSED
   ***************************


  *Heading
  *Node
  *Element, type=S4R
  *Nset, nset=ASSEMBLY_BOX_SET-2
  *Nset, nset=ASSEMBLY_BOX__PICKEDSET25
  *Nset, nset=ASSEMBLY_BOX__PICKEDSET31
  *Nset, nset=ASSEMBLY_BOX__PICKEDSET37
  *Nset, nset=ASSEMBLY_BOX__PICKEDSET43
  *Nset, nset=ASSEMBLY_BOX__PICKEDSET64
  *Elset, elset=ASSEMBLY_BOX_COMPOSITELAYUP-BOTTOM-1
  *Elset, elset=ASSEMBLY_BOX_COMPOSITELAYUP-SIDE1-1
  *Elset, elset=ASSEMBLY_BOX_COMPOSITELAYUP-SIDE2-1
  *Elset, elset=ASSEMBLY_BOX_COMPOSITELAYUP-SPAR-1
  *Elset, elset=ASSEMBLY_BOX_COMPOSITELAYUP-TOP-1
  *Elset, elset=ASSEMBLY_BOX_SET-2
  *Elset, elset=ASSEMBLY_BOX__PICKEDSET25
  *Elset, elset=ASSEMBLY_BOX__PICKEDSET31
  *Elset, elset=ASSEMBLY_BOX__PICKEDSET37
  *Elset, elset=ASSEMBLY_BOX__PICKEDSET43
  *Elset, elset=ASSEMBLY_BOX__PICKEDSET64
  *Elset, elset=ASSEMBLY_BOX__SURF-2_SPOS
  *Elset, elset=ASSEMBLY_BOX__TOP_
  *Elset, elset=ASSEMBLY_BOX___PICKEDSURF30_SPOS
  *Elset, elset=ASSEMBLY_BOX___PICKEDSURF36_SPOS
  *Elset, elset=ASSEMBLY_BOX___PICKEDSURF42_SPOS
  *Elset, elset=ASSEMBLY_BOX___PICKEDSURF63_SPOS
  *distribution, name=ASSEMBLY_BOX_ORI-1-DISCORIENT, location=ELEMENT, table=ORI-1-DISCORIENT_TABLE
  *distribution, name=ASSEMBLY_BOX_ORI-2-DISCORIENT, location=ELEMENT, table=ORI-2-DISCORIENT_TABLE
  *distribution, name=ASSEMBLY_BOX_ORI-3-DISCORIENT, location=ELEMENT, table=ORI-3-DISCORIENT_TABLE
  *distribution, name=ASSEMBLY_BOX_ORI-4-DISCORIENT, location=ELEMENT, table=ORI-4-DISCORIENT_TABLE
  *distribution, name=ASSEMBLY_BOX_ORI-5-DISCORIENT, location=ELEMENT, table=ORI-5-DISCORIENT_TABLE
  *Node
  *Nset, nset=ASSEMBLY_CONTACT-SURFACE
  *Nset, nset=ASSEMBLY_EDGES1
  *Nset, nset=ASSEMBLY_EDGES2
  *Nset, nset=ASSEMBLY_RF1
  *Nset, nset=ASSEMBLY_RF2
  *Elset, elset=ASSEMBLY_CONTACT-SURFACE
  *Elset, elset=ASSEMBLY_EDGES1
  *Elset, elset=ASSEMBLY_EDGES2
  *material, name=S-GLASS/EPOXY
  *density
  *elastic, type=LAMINA
  *failstress

 ***WARNING: COMPRESSIVE FAILURE VALUES MUST BE NEGATIVE. NEGATIVE OF INPUT 
             TAKEN.
 LINE IMAGE: *failstress

 ***WARNING: NO BIAXIAL STRESS LIMIT GIVEN.  DEFAULT F12 USED.
  *orientation, name=ASSEMBLY_BOX_ORI-1, system=RECTANGULAR

 ***NOTE: TO ADJUST FOR A RECTANGULAR COORDINATE SYSTEM THE COORDINATES FOR 
          POINT B ARE CHANGED TO: -1.10934E-31 0.0000 1.0000
  *orientation, name=ASSEMBLY_BOX_ORI-2, system=RECTANGULAR

 ***NOTE: TO ADJUST FOR A RECTANGULAR COORDINATE SYSTEM THE COORDINATES FOR 
          POINT B ARE CHANGED TO: -1.10934E-31 0.0000 1.0000
  *orientation, name=ASSEMBLY_BOX_ORI-5, system=RECTANGULAR

 ***NOTE: TO ADJUST FOR A RECTANGULAR COORDINATE SYSTEM THE COORDINATES FOR 
          POINT B ARE CHANGED TO: -1.10934E-31 0.0000 1.0000
  *orientation, name=ASSEMBLY_BOX_ORI-4, system=RECTANGULAR

 ***NOTE: TO ADJUST FOR A RECTANGULAR COORDINATE SYSTEM THE COORDINATES FOR 
          POINT B ARE CHANGED TO: -1.10934E-31 0.0000 1.0000
  *orientation, name=ASSEMBLY_BOX_ORI-3, system=RECTANGULAR

 ***NOTE: TO ADJUST FOR A RECTANGULAR COORDINATE SYSTEM THE COORDINATES FOR 
          POINT B ARE CHANGED TO: -1.10934E-31 0.0000 1.0000
  *shellsection, elset=ASSEMBLY_BOX_COMPOSITELAYUP-BOTTOM-1, layup=COMPOSITELAYUP-BOTTOM, composite, orientation=ASSEMBLY_BOX_ORI-1
  *shellsection, elset=ASSEMBLY_BOX_COMPOSITELAYUP-SIDE1-1, layup=COMPOSITELAYUP-SIDE1, composite, orientation=ASSEMBLY_BOX_ORI-2
  *shellsection, elset=ASSEMBLY_BOX_COMPOSITELAYUP-TOP-1, layup=COMPOSITELAYUP-TOP, composite, orientation=ASSEMBLY_BOX_ORI-5
  *shellsection, elset=ASSEMBLY_BOX_COMPOSITELAYUP-SPAR-1, layup=COMPOSITELAYUP-SPAR, composite, orientation=ASSEMBLY_BOX_ORI-4
  *shellsection, elset=ASSEMBLY_BOX_COMPOSITELAYUP-SIDE2-1, layup=COMPOSITELAYUP-SIDE2, composite, orientation=ASSEMBLY_BOX_ORI-3
  *shellsection, elset=ASSEMBLY_BOX_COMPOSITELAYUP-BOTTOM-1, layup=COMPOSITELAYUP-BOTTOM, composite, orientation=ASSEMBLY_BOX_ORI-1
  *shellsection, elset=ASSEMBLY_BOX_COMPOSITELAYUP-SIDE1-1, layup=COMPOSITELAYUP-SIDE1, composite, orientation=ASSEMBLY_BOX_ORI-2
  *shellsection, elset=ASSEMBLY_BOX_COMPOSITELAYUP-TOP-1, layup=COMPOSITELAYUP-TOP, composite, orientation=ASSEMBLY_BOX_ORI-5
  *shellsection, elset=ASSEMBLY_BOX_COMPOSITELAYUP-SPAR-1, layup=COMPOSITELAYUP-SPAR, composite, orientation=ASSEMBLY_BOX_ORI-4
  *shellsection, elset=ASSEMBLY_BOX_COMPOSITELAYUP-SIDE2-1, layup=COMPOSITELAYUP-SIDE2, composite, orientation=ASSEMBLY_BOX_ORI-3
  *surface, type=ELEMENT, name=ASSEMBLY_BOX_TOP
  *surface, type=ELEMENT, name=ASSEMBLY_BOX_SURF-2
  *surface, type=ELEMENT, name=ASSEMBLY_BOX__PICKEDSURF30
  *surface, type=ELEMENT, name=ASSEMBLY_BOX__PICKEDSURF36
  *surface, type=ELEMENT, name=ASSEMBLY_BOX__PICKEDSURF42
  *surface, type=ELEMENT, name=ASSEMBLY_BOX__PICKEDSURF63
  *surface, type=NODE, name=ASSEMBLY_EDGES1_CNS_
  *surface, type=NODE, name=ASSEMBLY_EDGES2_CNS_
  *surface, type=ELEMENT, name=ASSEMBLY_BOX_TOP
  *surface, type=ELEMENT, name=ASSEMBLY_BOX_SURF-2
  *surface, type=ELEMENT, name=ASSEMBLY_BOX__PICKEDSURF30
  *surface, type=ELEMENT, name=ASSEMBLY_BOX__PICKEDSURF36
  *surface, type=ELEMENT, name=ASSEMBLY_BOX__PICKEDSURF42
  *surface, type=ELEMENT, name=ASSEMBLY_BOX__PICKEDSURF63
  *surface, type=NODE, name=ASSEMBLY_EDGES1_CNS_
  *surface, type=NODE, name=ASSEMBLY_EDGES2_CNS_
  *boundary
  *boundary
  *boundary, op=NEW, loadcase=1
  *boundary, op=NEW, loadcase=2
  *boundary, op=NEW, loadcase=1
  *boundary, op=NEW, loadcase=2
  *boundary, op=NEW
  *boundary, op=NEW
  *boundary
  *boundary
  *boundary, op=NEW, loadcase=1
  *boundary, op=NEW, loadcase=2
  *boundary, op=NEW, loadcase=1
  *boundary, op=NEW, loadcase=2
  *mpc
  *mpc
  *nonstructuralmass, elset=ASSEMBLY_CONTACT-SURFACE, units=TOTALMASS
  *surface, type=ELEMENT, name=ASSEMBLY_BOX_TOP
  *surface, type=ELEMENT, name=ASSEMBLY_BOX_SURF-2
  *surface, type=ELEMENT, name=ASSEMBLY_BOX__PICKEDSURF30
  *surface, type=ELEMENT, name=ASSEMBLY_BOX__PICKEDSURF36
  *surface, type=ELEMENT, name=ASSEMBLY_BOX__PICKEDSURF42
  *surface, type=ELEMENT, name=ASSEMBLY_BOX__PICKEDSURF63
  *surface, type=NODE, name=ASSEMBLY_EDGES1_CNS_
  *surface, type=NODE, name=ASSEMBLY_EDGES2_CNS_
  *output, field, variable=PRESELECT
  *output, field
  *output, field, variable=PRESELECT
  *output, history, variable=PRESELECT
  *elementoutput, elset=ASSEMBLY_BOX_COMPOSITELAYUP-BOTTOM-1, directions=YES
  *elementoutput, elset=ASSEMBLY_BOX_COMPOSITELAYUP-SIDE1-1, directions=YES
  *elementoutput, elset=ASSEMBLY_BOX_COMPOSITELAYUP-SIDE1-1, directions=YES
  *elementoutput, elset=ASSEMBLY_BOX_COMPOSITELAYUP-SIDE2-1, directions=YES
  *elementoutput, elset=ASSEMBLY_BOX_COMPOSITELAYUP-SIDE2-1, directions=YES
  *elementoutput, elset=ASSEMBLY_BOX_COMPOSITELAYUP-SPAR-1, directions=YES
  *elementoutput, elset=ASSEMBLY_BOX_COMPOSITELAYUP-SPAR-1, directions=YES
  *elementoutput, elset=ASSEMBLY_BOX_COMPOSITELAYUP-TOP-1, directions=YES
  *elementoutput, elset=ASSEMBLY_BOX_COMPOSITELAYUP-TOP-1, directions=YES
  *output, field, variable=PRESELECT
  *output, field
  *output, field, variable=PRESELECT
  *output, history, variable=PRESELECT
  *elementoutput, elset=ASSEMBLY_BOX_COMPOSITELAYUP-BOTTOM-1, directions=YES
  *elementoutput, elset=ASSEMBLY_BOX_COMPOSITELAYUP-SIDE1-1, directions=YES
  *elementoutput, elset=ASSEMBLY_BOX_COMPOSITELAYUP-SIDE1-1, directions=YES
  *elementoutput, elset=ASSEMBLY_BOX_COMPOSITELAYUP-SIDE2-1, directions=YES
  *elementoutput, elset=ASSEMBLY_BOX_COMPOSITELAYUP-SIDE2-1, directions=YES
  *elementoutput, elset=ASSEMBLY_BOX_COMPOSITELAYUP-SPAR-1, directions=YES
  *elementoutput, elset=ASSEMBLY_BOX_COMPOSITELAYUP-SPAR-1, directions=YES
  *elementoutput, elset=ASSEMBLY_BOX_COMPOSITELAYUP-TOP-1, directions=YES
  *elementoutput, elset=ASSEMBLY_BOX_COMPOSITELAYUP-TOP-1, directions=YES
  *output, field, variable=PRESELECT
  *output, field
  *output, field, variable=PRESELECT
  *output, history, variable=PRESELECT
  *elementoutput, elset=ASSEMBLY_BOX_COMPOSITELAYUP-BOTTOM-1, directions=YES
  *elementoutput, elset=ASSEMBLY_BOX_COMPOSITELAYUP-SIDE1-1, directions=YES
  *elementoutput, elset=ASSEMBLY_BOX_COMPOSITELAYUP-SIDE1-1, directions=YES
  *elementoutput, elset=ASSEMBLY_BOX_COMPOSITELAYUP-SIDE2-1, directions=YES
  *elementoutput, elset=ASSEMBLY_BOX_COMPOSITELAYUP-SIDE2-1, directions=YES
  *elementoutput, elset=ASSEMBLY_BOX_COMPOSITELAYUP-SPAR-1, directions=YES
  *elementoutput, elset=ASSEMBLY_BOX_COMPOSITELAYUP-SPAR-1, directions=YES
  *elementoutput, elset=ASSEMBLY_BOX_COMPOSITELAYUP-TOP-1, directions=YES
  *elementoutput, elset=ASSEMBLY_BOX_COMPOSITELAYUP-TOP-1, directions=YES

 ***NOTE: MPCS (EXTERNAL or INTERNAL, including those generated from rigid body 
          definitions), KINEMATIC COUPLINGS, AND/OR EQUATIONS WILL ACTIVATE 
          ADDITIONAL DEGREES OF FREEDOM
  *Step, name=Step-Buck, nlgeom=NO, perturbation
  *output, field, variable=PRESELECT
  *Step, name=Step-Stat, nlgeom=NO
  *output, field
  *output, field, variable=PRESELECT
  *output, history, variable=PRESELECT
  *Step, name=Step-Buck, nlgeom=NO, perturbation
  *Step, name=Step-Stat, nlgeom=NO
  *Step, name=Step-Buck, nlgeom=NO, perturbation
  *buckle
  *boundary, op=NEW, loadcase=1
  *boundary, op=NEW, loadcase=2
  *boundary, op=NEW, loadcase=1
  *boundary, op=NEW, loadcase=2
  *dload, op=NEW

 ***NOTE: ALL VALID ELEMENTS HAVE BEEN COLLECTED IN ELEMENT SET 
          _Whole_Model_GRAV_Elset FOR APPLICATION OF LOAD TYPE GRAV.
  *output, field, variable=PRESELECT
  *endstep
  *Step, name=Step-Stat, nlgeom=NO
  *static
  *boundary, op=NEW
  *boundary, op=NEW
  *dload, op=NEW

 ***NOTE: ALL VALID ELEMENTS HAVE BEEN COLLECTED IN ELEMENT SET 
          _Whole_Model_GRAV_Elset FOR APPLICATION OF LOAD TYPE GRAV.
  *output, field
  *elementoutput, elset=ASSEMBLY_BOX_COMPOSITELAYUP-BOTTOM-1, directions=YES
  *elementoutput, elset=ASSEMBLY_BOX_COMPOSITELAYUP-SIDE1-1, directions=YES
  *elementoutput, elset=ASSEMBLY_BOX_COMPOSITELAYUP-SIDE1-1, directions=YES
  *elementoutput, elset=ASSEMBLY_BOX_COMPOSITELAYUP-SIDE2-1, directions=YES
  *elementoutput, elset=ASSEMBLY_BOX_COMPOSITELAYUP-SIDE2-1, directions=YES
  *elementoutput, elset=ASSEMBLY_BOX_COMPOSITELAYUP-SPAR-1, directions=YES
  *elementoutput, elset=ASSEMBLY_BOX_COMPOSITELAYUP-SPAR-1, directions=YES
  *elementoutput, elset=ASSEMBLY_BOX_COMPOSITELAYUP-TOP-1, directions=YES
  *elementoutput, elset=ASSEMBLY_BOX_COMPOSITELAYUP-TOP-1, directions=YES
  *output, field, variable=PRESELECT
  *output, history, variable=PRESELECT
  *endstep
  *boundary
  *boundary
  *Step, name=Step-Buck, nlgeom=NO, perturbation
  *buckle
  *buckle
  *boundary, op=NEW, loadcase=1
  *boundary, op=NEW, loadcase=2
  *boundary, op=NEW, loadcase=1
  *boundary, op=NEW, loadcase=2
  *endstep
  *Step, name=Step-Stat, nlgeom=NO
  *static
  *boundary, op=NEW
  *boundary, op=NEW
  *endstep



                            P R O B L E M   S I Z E


          NUMBER OF ELEMENTS IS                                  2970
          NUMBER OF NODES IS                                     2902
          NUMBER OF NODES DEFINED BY THE USER                    2902
          TOTAL NUMBER OF VARIABLES IN THE MODEL                17412
          (DEGREES OF FREEDOM PLUS MAX NO. OF ANY LAGRANGE MULTIPLIER
           VARIABLES. INCLUDE *PRINT,SOLVE=YES TO GET THE ACTUAL NUMBER.)



                              END OF USER INPUT PROCESSING



     JOB TIME SUMMARY
       USER TIME (SEC)      =  0.50000    
       SYSTEM TIME (SEC)    =  0.20000    
       TOTAL CPU TIME (SEC) =  0.70000    
       WALLCLOCK TIME (SEC) =          1
1

   Abaqus 2022                                  Date 08-apr-2025   Time 21:34:07
   For use by NORGES TEKNISK NATURVITENSKAPELIGE UNIVERSITET under license from Dassault Systemes or its subsidiary.

                                                                                               STEP    1  INCREMENT    1
                                                                                          TIME COMPLETED IN THIS STEP   0.00    


                        S T E P       1     C A L C U L A T I O N   O F   E I G E N V A L U E S

                                            F O R   B U C K L I N G   P R E D I C T I O N



                                                                                          

     THE SUBSPACE ITERATION METHOD IS USED FOR THIS ANALYSIS
     NUMBER OF EIGENVALUES                    100
     MAXIMUM NUMBER OF ITERATIONS                    800
     NUMBER OF VECTORS IN ITERATION                  108
     THE BUCKLING MODE CONSTRAINTS 
      ARE DEFINED AS LOAD CASE 2
                              ONLY INITIAL STRESS EFFECTS ARE INCLUDED IN THE
                              STIFFNESS MATRIX

     THIS IS A LINEAR PERTURBATION STEP.
     ALL LOADS ARE DEFINED AS CHANGE IN LOAD TO THE REFERENCE STATE



                    TOTAL MASS OF MODEL

                      5.3136285E-02


                    LOCATION OF THE CENTER OF MASS OF THE MODEL

                       1182.293         -5.2838722E-15       35.75675    


                    MOMENTS OF INERTIA ABOUT THE ORIGIN
                           I(XX)               I(YY)               I(ZZ)

                       92.99306           75490.16           75437.88    


                    PRODUCTS OF INERTIA ABOUT THE ORIGIN
                           I(XY)               I(XZ)               I(YZ)

                     -6.6998400E-13      -2268.733         -1.6208175E-14


                    MOMENTS OF INERTIA ABOUT THE CENTER OF MASS
                           I(XX)               I(YY)               I(ZZ)

                       25.05592           1147.435           1163.090    


                    PRODUCTS OF INERTIA ABOUT THE CENTER OF MASS
                           I(XY)               I(XZ)               I(YZ)

                     -1.0019309E-12      -22.39873         -2.6247432E-14
  
                   M E M O R Y   E S T I M A T E
  
 PROCESS      FLOATING PT       MINIMUM MEMORY        MEMORY TO
              OPERATIONS           REQUIRED          MINIMIZE I/O
             PER ITERATION           (MB)               (MB)
  
     1          6.20E+08               60                176
  
 NOTE:
      (1) SINCE ABAQUS DOES NOT PRE-ALLOCATE MEMORY AND ONLY ALLOCATES MEMORY AS NEEDED DURING THE ANALYSIS,
          THE MEMORY REQUIREMENT PRINTED HERE CAN ONLY BE VIEWED AS A GENERAL GUIDELINE BASED ON THE BEST
          KNOWLEDGE AVAILABLE AT THE BEGINNING OF A STEP BEFORE THE SOLUTION PROCESS HAS BEGUN.
      (2) THE ESTIMATE IS NORMALLY UPDATED AT THE BEGINNING OF EVERY STEP. IT IS THE MAXIMUM VALUE OF THE
          ESTIMATE FROM THE CURRENT STEP TO THE LAST STEP OF THE ANALYSIS, WITH UNSYMMETRIC SOLUTION TAKEN
          INTO ACCOUNT IF APPLICABLE. 
      (3) SINCE THE ESTIMATE IS BASED ON THE ACTIVE DEGREES OF FREEDOM IN THE FIRST ITERATION OF THE 
          CURRENT STEP, THE MEMORY ESTIMATE MIGHT BE SIGNIFICANTLY DIFFERENT THAN ACTUAL USAGE FOR 
          PROBLEMS WITH SUBSTANTIAL CHANGES IN ACTIVE DEGREES OF FREEDOM BETWEEN STEPS (OR EVEN WITHIN
          THE SAME STEP). EXAMPLES ARE: PROBLEMS WITH SIGNIFICANT CONTACT CHANGES, PROBLEMS WITH MODEL
          CHANGE, PROBLEMS WITH BOTH STATIC STEP AND STEADY STATE DYNAMIC PROCEDURES WHERE ACOUSTIC 
          ELEMENTS WILL ONLY BE ACTIVATED IN THE STEADY STATE DYNAMIC STEPS.
      (4) FOR MULTI-PROCESS EXECUTION, THE ESTIMATED VALUE OF FLOATING POINT OPERATIONS FOR EACH PROCESS
          IS BASED ON AN INITIAL SCHEDULING OF OPERATIONS AND MIGHT NOT REFLECT THE ACTUAL FLOATING 
          POINT OPERATIONS COMPLETED ON EACH PROCESS. OPERATIONS ARE DYNAMICALLY BALANCED DURING EXECUTION, 
          SO THE ACTUAL BALANCE OF OPERATIONS BETWEEN PROCESSES IS EXPECTED TO BE BETTER THAN THE ESTIMATE
          PRINTED HERE.
      (5) THE UPPER LIMIT OF MEMORY THAT CAN BE ALLOCATED BY ABAQUS WILL IN GENERAL DEPEND ON THE VALUE OF
          THE "MEMORY" PARAMETER AND THE AMOUNT OF PHYSICAL MEMORY AVAILABLE ON THE MACHINE. PLEASE SEE
          THE "ABAQUS ANALYSIS USER'S MANUAL" FOR MORE DETAILS. THE ACTUAL USAGE OF MEMORY AND OF DISK
          SPACE FOR SCRATCH DATA WILL DEPEND ON THIS UPPER LIMIT AS WELL AS THE MEMORY REQUIRED TO MINIMIZE
          I/O. IF THE MEMORY UPPER LIMIT IS GREATER THAN THE MEMORY REQUIRED TO MINIMIZE I/O, THEN THE ACTUAL
          MEMORY USAGE WILL BE CLOSE TO THE ESTIMATED "MEMORY TO MINIMIZE I/O" VALUE, AND THE SCRATCH DISK
          USAGE WILL BE CLOSE-TO-ZERO; OTHERWISE, THE ACTUAL MEMORY USED WILL BE CLOSE TO THE PREVIOUSLY
          MENTIONED MEMORY LIMIT, AND THE SCRATCH DISK USAGE WILL BE ROUGHLY PROPORTIONAL TO THE DIFFERENCE
          BETWEEN THE ESTIMATED "MEMORY TO MINIMIZE I/O" AND THE MEMORY UPPER LIMIT. HOWEVER ACCURATE
          ESTIMATE OF THE SCRATCH DISK SPACE IS NOT POSSIBLE.
      (6) USING "*RESTART, WRITE" CAN GENERATE A LARGE AMOUNT OF DATA WRITTEN IN THE WORK DIRECTORY.
  
                   M E M O R Y   E S T I M A T E
  
 PROCESS      FLOATING PT       MINIMUM MEMORY        MEMORY TO
              OPERATIONS           REQUIRED          MINIMIZE I/O
             PER ITERATION           (MB)               (MB)
  
     1          6.08E+08               60                183
  
 NOTE:
      (1) SINCE ABAQUS DOES NOT PRE-ALLOCATE MEMORY AND ONLY ALLOCATES MEMORY AS NEEDED DURING THE ANALYSIS,
          THE MEMORY REQUIREMENT PRINTED HERE CAN ONLY BE VIEWED AS A GENERAL GUIDELINE BASED ON THE BEST
          KNOWLEDGE AVAILABLE AT THE BEGINNING OF A STEP BEFORE THE SOLUTION PROCESS HAS BEGUN.
      (2) THE ESTIMATE IS NORMALLY UPDATED AT THE BEGINNING OF EVERY STEP. IT IS THE MAXIMUM VALUE OF THE
          ESTIMATE FROM THE CURRENT STEP TO THE LAST STEP OF THE ANALYSIS, WITH UNSYMMETRIC SOLUTION TAKEN
          INTO ACCOUNT IF APPLICABLE. 
      (3) SINCE THE ESTIMATE IS BASED ON THE ACTIVE DEGREES OF FREEDOM IN THE FIRST ITERATION OF THE 
          CURRENT STEP, THE MEMORY ESTIMATE MIGHT BE SIGNIFICANTLY DIFFERENT THAN ACTUAL USAGE FOR 
          PROBLEMS WITH SUBSTANTIAL CHANGES IN ACTIVE DEGREES OF FREEDOM BETWEEN STEPS (OR EVEN WITHIN
          THE SAME STEP). EXAMPLES ARE: PROBLEMS WITH SIGNIFICANT CONTACT CHANGES, PROBLEMS WITH MODEL
          CHANGE, PROBLEMS WITH BOTH STATIC STEP AND STEADY STATE DYNAMIC PROCEDURES WHERE ACOUSTIC 
          ELEMENTS WILL ONLY BE ACTIVATED IN THE STEADY STATE DYNAMIC STEPS.
      (4) FOR MULTI-PROCESS EXECUTION, THE ESTIMATED VALUE OF FLOATING POINT OPERATIONS FOR EACH PROCESS
          IS BASED ON AN INITIAL SCHEDULING OF OPERATIONS AND MIGHT NOT REFLECT THE ACTUAL FLOATING 
          POINT OPERATIONS COMPLETED ON EACH PROCESS. OPERATIONS ARE DYNAMICALLY BALANCED DURING EXECUTION, 
          SO THE ACTUAL BALANCE OF OPERATIONS BETWEEN PROCESSES IS EXPECTED TO BE BETTER THAN THE ESTIMATE
          PRINTED HERE.
      (5) THE UPPER LIMIT OF MEMORY THAT CAN BE ALLOCATED BY ABAQUS WILL IN GENERAL DEPEND ON THE VALUE OF
          THE "MEMORY" PARAMETER AND THE AMOUNT OF PHYSICAL MEMORY AVAILABLE ON THE MACHINE. PLEASE SEE
          THE "ABAQUS ANALYSIS USER'S MANUAL" FOR MORE DETAILS. THE ACTUAL USAGE OF MEMORY AND OF DISK
          SPACE FOR SCRATCH DATA WILL DEPEND ON THIS UPPER LIMIT AS WELL AS THE MEMORY REQUIRED TO MINIMIZE
          I/O. IF THE MEMORY UPPER LIMIT IS GREATER THAN THE MEMORY REQUIRED TO MINIMIZE I/O, THEN THE ACTUAL
          MEMORY USAGE WILL BE CLOSE TO THE ESTIMATED "MEMORY TO MINIMIZE I/O" VALUE, AND THE SCRATCH DISK
          USAGE WILL BE CLOSE-TO-ZERO; OTHERWISE, THE ACTUAL MEMORY USED WILL BE CLOSE TO THE PREVIOUSLY
          MENTIONED MEMORY LIMIT, AND THE SCRATCH DISK USAGE WILL BE ROUGHLY PROPORTIONAL TO THE DIFFERENCE
          BETWEEN THE ESTIMATED "MEMORY TO MINIMIZE I/O" AND THE MEMORY UPPER LIMIT. HOWEVER ACCURATE
          ESTIMATE OF THE SCRATCH DISK SPACE IS NOT POSSIBLE.
      (6) USING "*RESTART, WRITE" CAN GENERATE A LARGE AMOUNT OF DATA WRITTEN IN THE WORK DIRECTORY.


                              E I G E N V A L U E    O U T P U T     

 BUCKLING LOAD ESTIMATE = ("DEAD" LOADS) + EIGENVALUE * ("LIVE" LOADS).
          "DEAD" LOADS = TOTAL LOAD BEFORE  *BUCKLE STEP.
          "LIVE" LOADS = INCREMENTAL LOAD IN *BUCKLE STEP


 MODE NO      EIGENVALUE


       1     -0.82727    
       2     -0.82770    
       3     -0.85440    
       4     -0.85592    
       5     -0.89755    
       6     -0.90070    
       7     -0.93211    
       8     -0.93268    
       9     -0.95246    
      10     -0.95731    
      11     -0.96390    
      12     -0.96591    
      13      -1.0137    
      14      -1.0149    
      15      -1.0183    
      16      -1.0209    
      17      -1.0780    
      18      -1.0824    
      19      -1.0842    
      20      -1.0907    
      21      -1.1496    
      22      -1.1566    
      23      -1.1578    
      24      -1.1669    
      25      -1.2282    
      26      -1.2370    
      27      -1.2386    
      28      -1.2495    
      29      -1.3138    
      30      -1.3240    
      31      -1.3265    
      32      -1.3390    
      33      -1.4066    
      34      -1.4183    
      35      -1.4218    
      36      -1.4359    
      37      -1.5069    
      38      -1.5204    
      39      -1.5249    
      40      -1.5409    
      41      -1.6155    
      42      -1.6311    
      43      -1.6363    
      44      -1.6550    
      45      -1.7330    
      46      -1.7514    
      47      -1.7571    
      48      -1.7791    
      49      -1.8603    
      50      -1.8824    
      51      -1.8880    
      52      -1.9142    
      53      -1.9985    
      54      -2.0252    
      55      -2.0303    
      56      -2.0619    
      57      -2.1488    
      58       2.1657    
      59       2.1702    
      60      -2.1814    
      61      -2.1853    
      62      -2.2236    
      63       2.3002    
      64      -2.3126    
      65       2.3160    
      66      -2.3524    
      67      -2.3546    
      68      -2.4009    
      69      -2.4915    
      70       2.5020    
      71       2.5278    
      72      -2.5386    
      73      -2.5413    
      74      -2.5959    
      75      -2.6874    
      76       2.7386    
      77      -2.7415    
      78      -2.7479    
      79       2.7760    
      80      -2.8112    
      81       2.8800    
      82       2.8848    
      83      -2.9023    
      84      -2.9643    
      85      -2.9766    
      86       3.0018    
      87       3.0369    
      88       3.0479    
      89      -3.0497    
      90       3.0522    
      91      -3.1389    
      92      -3.2098    
      93      -3.2304    
      94       3.2673    
      95       3.2923    
      96       3.2951    
      97      -3.3142    
      98       3.3482    
      99      -3.3998    
     100      -3.4811    
1

   Abaqus 2022                                  Date 08-apr-2025   Time 21:34:59
   For use by NORGES TEKNISK NATURVITENSKAPELIGE UNIVERSITET under license from Dassault Systemes or its subsidiary.

                                                                                               STEP    2  INCREMENT    1
                                                                                          TIME COMPLETED IN THIS STEP   0.00    


                        S T E P       2     S T A T I C   A N A L Y S I S


                                                                                          

     AUTOMATIC TIME CONTROL WITH -
          A SUGGESTED INITIAL TIME INCREMENT OF                 1.00    
          AND A TOTAL TIME PERIOD OF                            1.00    
          THE MINIMUM TIME INCREMENT ALLOWED IS                1.000E-05
          THE MAXIMUM TIME INCREMENT ALLOWED IS                 1.00    

     LINEAR EQUATION SOLVER TYPE         DIRECT SPARSE
  
                   M E M O R Y   E S T I M A T E
  
 PROCESS      FLOATING PT       MINIMUM MEMORY        MEMORY TO
              OPERATIONS           REQUIRED          MINIMIZE I/O
             PER ITERATION           (MB)               (MB)
  
     1          6.08E+08               24                 82
  
 NOTE:
      (1) SINCE ABAQUS DOES NOT PRE-ALLOCATE MEMORY AND ONLY ALLOCATES MEMORY AS NEEDED DURING THE ANALYSIS,
          THE MEMORY REQUIREMENT PRINTED HERE CAN ONLY BE VIEWED AS A GENERAL GUIDELINE BASED ON THE BEST
          KNOWLEDGE AVAILABLE AT THE BEGINNING OF A STEP BEFORE THE SOLUTION PROCESS HAS BEGUN.
      (2) THE ESTIMATE IS NORMALLY UPDATED AT THE BEGINNING OF EVERY STEP. IT IS THE MAXIMUM VALUE OF THE
          ESTIMATE FROM THE CURRENT STEP TO THE LAST STEP OF THE ANALYSIS, WITH UNSYMMETRIC SOLUTION TAKEN
          INTO ACCOUNT IF APPLICABLE. 
      (3) SINCE THE ESTIMATE IS BASED ON THE ACTIVE DEGREES OF FREEDOM IN THE FIRST ITERATION OF THE 
          CURRENT STEP, THE MEMORY ESTIMATE MIGHT BE SIGNIFICANTLY DIFFERENT THAN ACTUAL USAGE FOR 
          PROBLEMS WITH SUBSTANTIAL CHANGES IN ACTIVE DEGREES OF FREEDOM BETWEEN STEPS (OR EVEN WITHIN
          THE SAME STEP). EXAMPLES ARE: PROBLEMS WITH SIGNIFICANT CONTACT CHANGES, PROBLEMS WITH MODEL
          CHANGE, PROBLEMS WITH BOTH STATIC STEP AND STEADY STATE DYNAMIC PROCEDURES WHERE ACOUSTIC 
          ELEMENTS WILL ONLY BE ACTIVATED IN THE STEADY STATE DYNAMIC STEPS.
      (4) FOR MULTI-PROCESS EXECUTION, THE ESTIMATED VALUE OF FLOATING POINT OPERATIONS FOR EACH PROCESS
          IS BASED ON AN INITIAL SCHEDULING OF OPERATIONS AND MIGHT NOT REFLECT THE ACTUAL FLOATING 
          POINT OPERATIONS COMPLETED ON EACH PROCESS. OPERATIONS ARE DYNAMICALLY BALANCED DURING EXECUTION, 
          SO THE ACTUAL BALANCE OF OPERATIONS BETWEEN PROCESSES IS EXPECTED TO BE BETTER THAN THE ESTIMATE
          PRINTED HERE.
      (5) THE UPPER LIMIT OF MEMORY THAT CAN BE ALLOCATED BY ABAQUS WILL IN GENERAL DEPEND ON THE VALUE OF
          THE "MEMORY" PARAMETER AND THE AMOUNT OF PHYSICAL MEMORY AVAILABLE ON THE MACHINE. PLEASE SEE
          THE "ABAQUS ANALYSIS USER'S MANUAL" FOR MORE DETAILS. THE ACTUAL USAGE OF MEMORY AND OF DISK
          SPACE FOR SCRATCH DATA WILL DEPEND ON THIS UPPER LIMIT AS WELL AS THE MEMORY REQUIRED TO MINIMIZE
          I/O. IF THE MEMORY UPPER LIMIT IS GREATER THAN THE MEMORY REQUIRED TO MINIMIZE I/O, THEN THE ACTUAL
          MEMORY USAGE WILL BE CLOSE TO THE ESTIMATED "MEMORY TO MINIMIZE I/O" VALUE, AND THE SCRATCH DISK
          USAGE WILL BE CLOSE-TO-ZERO; OTHERWISE, THE ACTUAL MEMORY USED WILL BE CLOSE TO THE PREVIOUSLY
          MENTIONED MEMORY LIMIT, AND THE SCRATCH DISK USAGE WILL BE ROUGHLY PROPORTIONAL TO THE DIFFERENCE
          BETWEEN THE ESTIMATED "MEMORY TO MINIMIZE I/O" AND THE MEMORY UPPER LIMIT. HOWEVER ACCURATE
          ESTIMATE OF THE SCRATCH DISK SPACE IS NOT POSSIBLE.
      (6) USING "*RESTART, WRITE" CAN GENERATE A LARGE AMOUNT OF DATA WRITTEN IN THE WORK DIRECTORY.


          THE ANALYSIS HAS BEEN COMPLETED



                              ANALYSIS COMPLETE
                              WITH      2 WARNING MESSAGES ON THE DAT FILE



     JOB TIME SUMMARY
       USER TIME (SEC)      =   37.200    
       SYSTEM TIME (SEC)    =   16.300    
       TOTAL CPU TIME (SEC) =   53.500    
       WALLCLOCK TIME (SEC) =         54
