1

   Abaqus 2022                                  Date 08-apr-2025   Time 21:34:07
   For use by NORGES TEKNISK NATURVITENSKAPELIGE UNIVERSITET under license from Dassault Systemes or its subsidiary.

                                                                                 
                                                                                 
 STEP    1     INCREMENT     1     STEP TIME    0.00    


                        S T E P       1     C A L C U L A T I O N   O F   E I G E N V A L U E S

                                            F O R   B U C K L I N G   P R E D I C T I O N



                                                                                          

     THE SUBSPACE ITERATION METHOD IS USED FOR THIS ANALYSIS
     NUMBER OF EIGENVALUES                    100
     MAXIMUM NUMBER OF ITERATIONS                    800
     NUMBER OF VECTORS IN ITERATION                  108
     THE BUCKLING MODE CONSTRAINTS 
      ARE DEFINED AS LOAD CASE 2
                              ONLY INITIAL STRESS EFFECTS ARE INCLUDED IN THE
                              STIFFNESS MATRIX

     THIS IS A LINEAR PERTURBATION STEP.
     ALL LOADS ARE DEFINED AS CHANGE IN LOAD TO THE REFERENCE STATE

     EXTRAPOLATION WILL NOT BE USED

     CHARACTERISTIC ELEMENT LENGTH      18.5    

     DETAILS REGARDING ACTUAL SOLUTION WAVEFRONT REQUESTED

     DETAILED OUTPUT OF DIAGNOSTICS TO DATABASE REQUESTED

     PRINT OF INCREMENT NUMBER, TIME, ETC., TO THE MESSAGE FILE EVERY     1  INCREMENTS
 
	SYMMETRIC DIRECT SPARSE SOLVER RUNNING ON
 	1 HOST:        1 MPI RANK  x 1 THREAD
 	NUMBER OF EQUATIONS:     17064
 	NUMBER OF RHS:           1
 	NUMBER OF FLOPS:         6.195e+08

     CHECK POINT   START OF SOLVER    

     CHECK POINT  END OF SOLVER       

       ELAPSED USER TIME (SEC)      =  0.20000    
       ELAPSED SYSTEM TIME (SEC)    =   0.0000    
       ELAPSED TOTAL CPU TIME (SEC) =  0.20000    
       ELAPSED WALLCLOCK TIME (SEC) =          0
 
     ITERATION 1
      1       -1.069256e+00    
      2       -1.141903e+00    
      3       -1.158501e+00    
      4       -1.187733e+00    
      5       -1.231864e+00    
      6       -1.241336e+00    
      7       -1.277717e+00    
      8       -1.299986e+00    
      9       -1.344721e+00    
      10      -1.363681e+00    
      11      -1.401619e+00    
      12      -1.428956e+00    
      13      -1.437389e+00    
      14      -1.482016e+00    
      15      -1.550869e+00    
      16      -1.572851e+00    
      17      -1.643912e+00    
      18      -1.669045e+00    
      19      -1.715390e+00    
      20      -1.770279e+00    
      21      -1.819306e+00    
      22      -1.876104e+00    
      23      -1.918537e+00    
      24      -1.982892e+00    
      25      -2.017121e+00    
      26      -2.099586e+00    
      27      -2.135688e+00    
      28      -2.207432e+00    
      29      -2.300409e+00    
      30      -2.355524e+00    
      31      -2.489444e+00    
      32      -2.628521e+00    
      33      -2.719912e+00    
      34      -2.746302e+00    
      35      -2.796947e+00    
      36      -2.934329e+00    
      37      -3.074835e+00    
      38      -3.211333e+00    
      39      -3.217000e+00    
      40      -3.275314e+00    
      41      -3.453602e+00    
      42      -3.545940e+00    
      43      -3.585560e+00    
      44      -3.946812e+00    
      45      -4.079951e+00    
      46      -4.131231e+00    
      47      -4.457726e+00    
      48      -4.690152e+00    
      49      -4.757001e+00    
      50      -5.063809e+00    
      51      -5.188986e+00    
      52      -5.507671e+00    
      53      -5.595015e+00    
      54      -5.824967e+00    
      55      -6.093740e+00    
      56      -6.347546e+00    
      57      -6.389059e+00    
      58      -6.984463e+00    
      59      -7.327977e+00    
      60      -7.647947e+00    
      61      -8.326943e+00    
      62      -8.441059e+00    
      63      -9.073999e+00    
      64      -1.031359e+01    
      65      1.049544e+01     
      66      -1.055520e+01    
      67      -1.123442e+01    
      68      1.133044e+01     
      69      -1.165066e+01    
      70      -1.208155e+01    
      71      1.280215e+01     
      72      -1.306851e+01    
      73      1.390159e+01     
      74      -1.464672e+01    
      75      1.503222e+01     
      76      -1.630712e+01    
      77      1.653882e+01     
      78      -1.749654e+01    
      79      -1.793289e+01    
      80      1.976747e+01     
      81      -2.024841e+01    
      82      2.193200e+01     
      83      -2.237096e+01    
      84      -2.421897e+01    
      85      2.524658e+01     
      86      -2.701418e+01    
      87      -2.929436e+01    
      88      -2.943393e+01    
      89      3.319198e+01     
      90      -3.354485e+01    
      91      3.436618e+01     
      92      4.117304e+01     
      93      -4.340766e+01    
      94      4.351269e+01     
      95      4.697156e+01     
      96      -4.730765e+01    
      97      -5.301004e+01    
      98      6.159483e+01     
      99      7.550338e+01     
      100     -8.286951e+01    
      101     -1.001795e+02    
      102     -1.169611e+02    
      103     1.730468e+02     
      104     1.891537e+02     
      105     -2.206417e+02    
      106     -4.257596e+02    
      107     6.657533e+02     
      108     -1.784604e+04    
 
     NUMBER OF EIGENVALUES CONVERGED UPTO THIS ITERATION = 0
 
     ITERATION 2
      1       -8.318289e-01    
      2       -8.349216e-01    
      3       -8.610154e-01    
      4       -8.633461e-01    
      5       -9.057072e-01    
      6       -9.084220e-01    
      7       -9.409947e-01    
      8       -9.443569e-01    
      9       -9.630860e-01    
      10      -9.711989e-01    
      11      -9.777085e-01    
      12      -9.813899e-01    
      13      -1.023099e+00    
      14      -1.030236e+00    
      15      -1.037506e+00    
      16      -1.039429e+00    
      17      -1.089026e+00    
      18      -1.096651e+00    
      19      -1.113047e+00    
      20      -1.122569e+00    
      21      -1.167128e+00    
      22      -1.178862e+00    
      23      -1.202321e+00    
      24      -1.207017e+00    
      25      -1.257641e+00    
      26      -1.269165e+00    
      27      -1.292812e+00    
      28      -1.302578e+00    
      29      -1.347346e+00    
      30      -1.363328e+00    
      31      -1.376708e+00    
      32      -1.433589e+00    
      33      -1.466098e+00    
      34      -1.513541e+00    
      35      -1.519150e+00    
      36      -1.553205e+00    
      37      -1.570743e+00    
      38      -1.587471e+00    
      39      -1.657084e+00    
      40      -1.668308e+00    
      41      -1.708887e+00    
      42      -1.733390e+00    
      43      -1.767707e+00    
      44      -1.781680e+00    
      45      -1.844762e+00    
      46      -1.894887e+00    
      47      -1.934226e+00    
      48      -2.006089e+00    
      49      -2.043255e+00    
      50      -2.067241e+00    
      51      -2.115389e+00    
      52      -2.151435e+00    
      53      -2.235022e+00    
      54      -2.289820e+00    
      55      -2.349154e+00    
      56      -2.401076e+00    
      57      -2.505630e+00    
      58      -2.563822e+00    
      59      -2.600066e+00    
      60      -2.674281e+00    
      61      2.830605e+00     
      62      -2.838852e+00    
      63      -2.877654e+00    
      64      -3.005173e+00    
      65      -3.113009e+00    
      66      3.164057e+00     
      67      -3.220400e+00    
      68      -3.266444e+00    
      69      3.299774e+00     
      70      -3.323728e+00    
      71      -3.609399e+00    
      72      -3.725860e+00    
      73      3.754151e+00     
      74      3.918097e+00     
      75      -4.146866e+00    
      76      -4.223964e+00    
      77      4.288796e+00     
      78      -4.289259e+00    
      79      4.661001e+00     
      80      -4.706293e+00    
      81      4.921503e+00     
      82      -5.228940e+00    
      83      5.414048e+00     
      84      -5.489062e+00    
      85      -5.690941e+00    
      86      5.713916e+00     
      87      -6.024116e+00    
      88      -6.183279e+00    
      89      6.389147e+00     
      90      -6.660910e+00    
      91      -6.913363e+00    
      92      7.316708e+00     
      93      8.126442e+00     
      94      -8.578125e+00    
      95      -9.004595e+00    
      96      9.201603e+00     
      97      1.005455e+01     
      98      -1.068803e+01    
      99      1.130372e+01     
      100     -1.203084e+01    
      101     1.262563e+01     
      102     1.819104e+01     
      103     -1.882710e+01    
      104     -2.734786e+01    
      105     2.811791e+01     
      106     -4.373587e+01    
      107     5.794505e+01     
      108     1.546196e+02     
 
     NUMBER OF EIGENVALUES CONVERGED UPTO THIS ITERATION = 0
 
     ITERATION 3
      1       -8.274963e-01    
      2       -8.278697e-01    
      3       -8.546616e-01    
      4       -8.561794e-01    
      5       -8.978913e-01    
      6       -9.010813e-01    
      7       -9.326289e-01    
      8       -9.332234e-01    
      9       -9.529651e-01    
      10      -9.583170e-01    
      11      -9.643336e-01    
      12      -9.665106e-01    
      13      -1.015036e+00    
      14      -1.015368e+00    
      15      -1.019240e+00    
      16      -1.021975e+00    
      17      -1.078694e+00    
      18      -1.084444e+00    
      19      -1.084983e+00    
      20      -1.093301e+00    
      21      -1.150594e+00    
      22      -1.159332e+00    
      23      -1.159816e+00    
      24      -1.169209e+00    
      25      -1.234070e+00    
      26      -1.239495e+00    
      27      -1.240117e+00    
      28      -1.254497e+00    
      29      -1.317213e+00    
      30      -1.329944e+00    
      31      -1.331827e+00    
      32      -1.350417e+00    
      33      -1.414329e+00    
      34      -1.427085e+00    
      35      -1.433077e+00    
      36      -1.445320e+00    
      37      -1.512470e+00    
      38      -1.533429e+00    
      39      -1.536825e+00    
      40      -1.555885e+00    
      41      -1.635527e+00    
      42      -1.645201e+00    
      43      -1.654592e+00    
      44      -1.670441e+00    
      45      -1.751055e+00    
      46      -1.782504e+00    
      47      -1.783606e+00    
      48      -1.804817e+00    
      49      -1.900720e+00    
      50      -1.929130e+00    
      51      -1.942280e+00    
      52      -1.960025e+00    
      53      -2.042681e+00    
      54      -2.061077e+00    
      55      -2.095148e+00    
      56      -2.158488e+00    
      57      -2.251126e+00    
      58      -2.296458e+00    
      59      2.298108e+00     
      60      -2.344083e+00    
      61      -2.363387e+00    
      62      2.396870e+00     
      63      -2.407333e+00    
      64      -2.481244e+00    
      65      2.484777e+00     
      66      -2.522282e+00    
      67      -2.610574e+00    
      68      2.658208e+00     
      69      -2.662906e+00    
      70      -2.764608e+00    
      71      -2.869691e+00    
      72      2.879415e+00     
      73      -2.921952e+00    
      74      -3.008786e+00    
      75      -3.149048e+00    
      76      3.149779e+00     
      77      3.212718e+00     
      78      -3.240123e+00    
      79      -3.390680e+00    
      80      -3.448454e+00    
      81      3.604785e+00     
      82      3.672786e+00     
      83      -3.755410e+00    
      84      -3.803045e+00    
      85      -3.966523e+00    
      86      3.989421e+00     
      87      4.038243e+00     
      88      4.128156e+00     
      89      -4.284560e+00    
      90      -4.394077e+00    
      91      4.452845e+00     
      92      -4.765878e+00    
      93      -5.078972e+00    
      94      5.118640e+00     
      95      5.354482e+00     
      96      -5.526990e+00    
      97      5.778496e+00     
      98      -6.165659e+00    
      99      6.738483e+00     
      100     -7.151373e+00    
      101     -7.439553e+00    
      102     8.756024e+00     
      103     1.056433e+01     
      104     -1.247892e+01    
      105     -1.885241e+01    
      106     2.137641e+01     
      107     -3.799640e+01    
      108     -8.332039e+02    
 
     NUMBER OF EIGENVALUES CONVERGED UPTO THIS ITERATION = 0
 
     ITERATION 4
      1       -8.272830e-01    
      2       -8.277063e-01    
      3       -8.544118e-01    
      4       -8.559327e-01    
      5       -8.975671e-01    
      6       -9.007246e-01    
      7       -9.321393e-01    
      8       -9.327078e-01    
      9       -9.524841e-01    
      10      -9.573551e-01    
      11      -9.639287e-01    
      12      -9.659464e-01    
      13      -1.013814e+00    
      14      -1.014930e+00    
      15      -1.018358e+00    
      16      -1.020983e+00    
      17      -1.078010e+00    
      18      -1.082607e+00    
      19      -1.084218e+00    
      20      -1.090906e+00    
      21      -1.149637e+00    
      22      -1.156826e+00    
      23      -1.157936e+00    
      24      -1.167048e+00    
      25      -1.228793e+00    
      26      -1.237229e+00    
      27      -1.238693e+00    
      28      -1.249933e+00    
      29      -1.314176e+00    
      30      -1.324819e+00    
      31      -1.327125e+00    
      32      -1.340159e+00    
      33      -1.407621e+00    
      34      -1.419445e+00    
      35      -1.423158e+00    
      36      -1.436937e+00    
      37      -1.507583e+00    
      38      -1.522802e+00    
      39      -1.526709e+00    
      40      -1.543080e+00    
      41      -1.619964e+00    
      42      -1.633357e+00    
      43      -1.639350e+00    
      44      -1.657522e+00    
      45      -1.736972e+00    
      46      -1.757349e+00    
      47      -1.761958e+00    
      48      -1.785122e+00    
      49      -1.869444e+00    
      50      -1.895713e+00    
      51      -1.900887e+00    
      52      -1.922337e+00    
      53      -2.006639e+00    
      54      -2.038553e+00    
      55      -2.051690e+00    
      56      -2.088678e+00    
      57      -2.200485e+00    
      58      2.203705e+00     
      59      -2.205680e+00    
      60      -2.218761e+00    
      61      2.236040e+00     
      62      -2.271369e+00    
      63      -2.358305e+00    
      64      2.366878e+00     
      65      -2.384429e+00    
      66      -2.415294e+00    
      67      2.431060e+00     
      68      -2.491919e+00    
      69      -2.576490e+00    
      70      -2.637499e+00    
      71      2.644240e+00     
      72      -2.707876e+00    
      73      -2.725146e+00    
      74      2.754781e+00     
      75      -2.808178e+00    
      76      -2.917123e+00    
      77      2.933684e+00     
      78      -2.948404e+00    
      79      3.120389e+00     
      80      -3.122074e+00    
      81      3.190907e+00     
      82      -3.201780e+00    
      83      -3.252177e+00    
      84      3.287813e+00     
      85      3.370575e+00     
      86      -3.397738e+00    
      87      -3.530867e+00    
      88      3.543472e+00     
      89      -3.603519e+00    
      90      3.625757e+00     
      91      -3.674667e+00    
      92      -4.071126e+00    
      93      4.072345e+00     
      94      4.238021e+00     
      95      4.402807e+00     
      96      -4.417337e+00    
      97      -4.846190e+00    
      98      4.857560e+00     
      99      -5.131423e+00    
      100     -5.616251e+00    
      101     6.340846e+00     
      102     -6.578005e+00    
      103     7.561638e+00     
      104     -9.650053e+00    
      105     -1.243787e+01    
      106     1.591053e+01     
      107     -7.443232e+01    
      108     9.588702e+01     
 
     NUMBER OF EIGENVALUES CONVERGED UPTO THIS ITERATION = 0
 
     ITERATION 5
      1       -8.272747e-01    
      2       -8.277011e-01    
      3       -8.544003e-01    
      4       -8.559210e-01    
      5       -8.975527e-01    
      6       -9.007051e-01    
      7       -9.321133e-01    
      8       -9.326817e-01    
      9       -9.524581e-01    
      10      -9.573129e-01    
      11      -9.639046e-01    
      12      -9.659127e-01    
      13      -1.013726e+00    
      14      -1.014903e+00    
      15      -1.018304e+00    
      16      -1.020916e+00    
      17      -1.077958e+00    
      18      -1.082459e+00    
      19      -1.084172e+00    
      20      -1.090721e+00    
      21      -1.149569e+00    
      22      -1.156617e+00    
      23      -1.157781e+00    
      24      -1.166891e+00    
      25      -1.228236e+00    
      26      -1.237045e+00    
      27      -1.238578e+00    
      28      -1.249528e+00    
      29      -1.313834e+00    
      30      -1.324137e+00    
      31      -1.326616e+00    
      32      -1.339121e+00    
      33      -1.406748e+00    
      34      -1.418467e+00    
      35      -1.421994e+00    
      36      -1.435997e+00    
      37      -1.507016e+00    
      38      -1.520754e+00    
      39      -1.525194e+00    
      40      -1.541266e+00    
      41      -1.616376e+00    
      42      -1.631483e+00    
      43      -1.636882e+00    
      44      -1.655441e+00    
      45      -1.733870e+00    
      46      -1.752704e+00    
      47      -1.757973e+00    
      48      -1.780455e+00    
      49      -1.862555e+00    
      50      -1.885655e+00    
      51      -1.891013e+00    
      52      -1.916345e+00    
      53      -2.000123e+00    
      54      -2.030083e+00    
      55      -2.037249e+00    
      56      -2.068326e+00    
      57      -2.165684e+00    
      58      2.179091e+00     
      59      -2.188993e+00    
      60      2.189509e+00     
      61      -2.195474e+00    
      62      -2.246222e+00    
      63      -2.330883e+00    
      64      2.332053e+00     
      65      2.354850e+00     
      66      -2.362943e+00    
      67      -2.383359e+00    
      68      -2.438161e+00    
      69      -2.536451e+00    
      70      2.558065e+00     
      71      -2.579870e+00    
      72      -2.608776e+00    
      73      2.613776e+00     
      74      -2.652142e+00    
      75      -2.743450e+00    
      76      -2.828702e+00    
      77      2.829794e+00     
      78      -2.870477e+00    
      79      2.925259e+00     
      80      -2.935825e+00    
      81      3.021415e+00     
      82      -3.064125e+00    
      83      3.091625e+00     
      84      -3.129504e+00    
      85      3.163572e+00     
      86      -3.228098e+00    
      87      3.275622e+00     
      88      -3.326115e+00    
      89      -3.379726e+00    
      90      3.380314e+00     
      91      -3.446064e+00    
      92      3.593206e+00     
      93      -3.743325e+00    
      94      3.804014e+00     
      95      4.017456e+00     
      96      -4.079325e+00    
      97      -4.115077e+00    
      98      4.143953e+00     
      99      -4.611602e+00    
      100     -5.237534e+00    
      101     5.272793e+00     
      102     6.123900e+00     
      103     -6.282026e+00    
      104     -8.404401e+00    
      105     -9.563557e+00    
      106     1.378894e+01     
      107     2.512264e+01     
      108     -1.453204e+02    
 
     NUMBER OF EIGENVALUES CONVERGED UPTO THIS ITERATION = 0
 
     ITERATION 6
      1       -8.272744e-01    
      2       -8.277010e-01    
      3       -8.543997e-01    
      4       -8.559204e-01    
      5       -8.975520e-01    
      6       -9.007041e-01    
      7       -9.321120e-01    
      8       -9.326801e-01    
      9       -9.524566e-01    
      10      -9.573109e-01    
      11      -9.639032e-01    
      12      -9.659104e-01    
      13      -1.013720e+00    
      14      -1.014901e+00    
      15      -1.018301e+00    
      16      -1.020911e+00    
      17      -1.077954e+00    
      18      -1.082448e+00    
      19      -1.084168e+00    
      20      -1.090706e+00    
      21      -1.149563e+00    
      22      -1.156598e+00    
      23      -1.157766e+00    
      24      -1.166878e+00    
      25      -1.228176e+00    
      26      -1.237028e+00    
      27      -1.238567e+00    
      28      -1.249489e+00    
      29      -1.313796e+00    
      30      -1.324058e+00    
      31      -1.326550e+00    
      32      -1.338990e+00    
      33      -1.406630e+00    
      34      -1.418333e+00    
      35      -1.421841e+00    
      36      -1.435886e+00    
      37      -1.506945e+00    
      38      -1.520437e+00    
      39      -1.524910e+00    
      40      -1.540985e+00    
      41      -1.615671e+00    
      42      -1.631184e+00    
      43      -1.636428e+00    
      44      -1.655070e+00    
      45      -1.733168e+00    
      46      -1.751713e+00    
      47      -1.757232e+00    
      48      -1.779367e+00    
      49      -1.860892e+00    
      50      -1.883161e+00    
      51      -1.888719e+00    
      52      -1.914798e+00    
      53      -1.998864e+00    
      54      -2.026698e+00    
      55      -2.032394e+00    
      56      -2.063663e+00    
      57      -2.154233e+00    
      58      2.171254e+00     
      59      2.175087e+00     
      60      -2.184332e+00    
      61      -2.188274e+00    
      62      -2.233995e+00    
      63      2.315669e+00     
      64      -2.318451e+00    
      65      2.327743e+00     
      66      -2.357524e+00    
      67      -2.367664e+00    
      68      -2.415229e+00    
      69      -2.513030e+00    
      70      2.525495e+00     
      71      -2.556482e+00    
      72      2.562852e+00     
      73      -2.570074e+00    
      74      -2.624485e+00    
      75      -2.718138e+00    
      76      2.781726e+00     
      77      -2.786074e+00    
      78      -2.816853e+00    
      79      2.855824e+00     
      80      -2.870447e+00    
      81      2.958241e+00     
      82      -2.982905e+00    
      83      2.983824e+00     
      84      -3.068205e+00    
      85      3.105915e+00     
      86      -3.136691e+00    
      87      3.161949e+00     
      88      -3.175316e+00    
      89      3.244900e+00     
      90      -3.311766e+00    
      91      3.356398e+00     
      92      -3.395063e+00    
      93      -3.529250e+00    
      94      3.602001e+00     
      95      3.768452e+00     
      96      -3.768859e+00    
      97      -3.866018e+00    
      98      3.906032e+00     
      99      -4.187148e+00    
      100     4.398148e+00     
      101     -5.123828e+00    
      102     5.703134e+00     
      103     -6.097437e+00    
      104     -7.625486e+00    
      105     -8.046983e+00    
      106     1.188446e+01     
      107     1.490142e+01     
      108     1.797030e+02     
 
     NUMBER OF EIGENVALUES CONVERGED UPTO THIS ITERATION = 5
 
     ITERATION 7
      1       -8.272743e-01    
      2       -8.277009e-01    
      3       -8.543997e-01    
      4       -8.559204e-01    
      5       -8.975520e-01    
      6       -9.007040e-01    
      7       -9.321119e-01    
      8       -9.326800e-01    
      9       -9.524565e-01    
      10      -9.573108e-01    
      11      -9.639031e-01    
      12      -9.659103e-01    
      13      -1.013719e+00    
      14      -1.014901e+00    
      15      -1.018300e+00    
      16      -1.020910e+00    
      17      -1.077954e+00    
      18      -1.082447e+00    
      19      -1.084168e+00    
      20      -1.090704e+00    
      21      -1.149563e+00    
      22      -1.156596e+00    
      23      -1.157765e+00    
      24      -1.166877e+00    
      25      -1.228169e+00    
      26      -1.237026e+00    
      27      -1.238565e+00    
      28      -1.249485e+00    
      29      -1.313792e+00    
      30      -1.324048e+00    
      31      -1.326542e+00    
      32      -1.338972e+00    
      33      -1.406613e+00    
      34      -1.418314e+00    
      35      -1.421820e+00    
      36      -1.435873e+00    
      37      -1.506936e+00    
      38      -1.520389e+00    
      39      -1.524860e+00    
      40      -1.540940e+00    
      41      -1.615545e+00    
      42      -1.631134e+00    
      43      -1.636342e+00    
      44      -1.655002e+00    
      45      -1.733013e+00    
      46      -1.751498e+00    
      47      -1.757092e+00    
      48      -1.779124e+00    
      49      -1.860465e+00    
      50      -1.882581e+00    
      51      -1.888167e+00    
      52      -1.914372e+00    
      53      -1.998592e+00    
      54      -2.025618e+00    
      55      -2.030920e+00    
      56      -2.062448e+00    
      57      -2.150530e+00    
      58      2.167788e+00     
      59      2.171497e+00     
      60      -2.182458e+00    
      61      -2.186159e+00    
      62      -2.227974e+00    
      63      2.306578e+00     
      64      -2.314363e+00    
      65      2.319925e+00     
      66      -2.355560e+00    
      67      -2.359479e+00    
      68      -2.406563e+00    
      69      -2.501453e+00    
      70      2.512448e+00     
      71      2.542757e+00     
      72      -2.547033e+00    
      73      -2.554629e+00    
      74      -2.609909e+00    
      75      -2.704987e+00    
      76      2.759162e+00     
      77      -2.765981e+00    
      78      -2.781049e+00    
      79      2.822690e+00     
      80      -2.842757e+00    
      81      2.926677e+00     
      82      2.935397e+00     
      83      -2.943830e+00    
      84      -3.031755e+00    
      85      -3.068324e+00    
      86      3.077028e+00     
      87      3.109687e+00     
      88      -3.124207e+00    
      89      3.155797e+00     
      90      3.231307e+00     
      91      -3.266687e+00    
      92      -3.359386e+00    
      93      -3.391225e+00    
      94      3.498651e+00     
      95      -3.614471e+00    
      96      3.618401e+00     
      97      -3.728538e+00    
      98      3.741627e+00     
      99      -3.894485e+00    
      100     3.954683e+00     
      101     -5.046622e+00    
      102     5.467986e+00     
      103     -5.905417e+00    
      104     -6.989475e+00    
      105     -7.271358e+00    
      106     9.038465e+00     
      107     1.307099e+01     
      108     4.054298e+01     
 
     NUMBER OF EIGENVALUES CONVERGED UPTO THIS ITERATION = 21
 
     ITERATION 8
      1       -8.272743e-01    
      2       -8.277009e-01    
      3       -8.543997e-01    
      4       -8.559204e-01    
      5       -8.975520e-01    
      6       -9.007040e-01    
      7       -9.321119e-01    
      8       -9.326800e-01    
      9       -9.524565e-01    
      10      -9.573108e-01    
      11      -9.639031e-01    
      12      -9.659102e-01    
      13      -1.013719e+00    
      14      -1.014901e+00    
      15      -1.018300e+00    
      16      -1.020910e+00    
      17      -1.077954e+00    
      18      -1.082447e+00    
      19      -1.084168e+00    
      20      -1.090704e+00    
      21      -1.149563e+00    
      22      -1.156596e+00    
      23      -1.157765e+00    
      24      -1.166877e+00    
      25      -1.228169e+00    
      26      -1.237026e+00    
      27      -1.238565e+00    
      28      -1.249484e+00    
      29      -1.313791e+00    
      30      -1.324047e+00    
      31      -1.326541e+00    
      32      -1.338970e+00    
      33      -1.406611e+00    
      34      -1.418312e+00    
      35      -1.421817e+00    
      36      -1.435871e+00    
      37      -1.506935e+00    
      38      -1.520381e+00    
      39      -1.524852e+00    
      40      -1.540933e+00    
      41      -1.615523e+00    
      42      -1.631125e+00    
      43      -1.636326e+00    
      44      -1.654990e+00    
      45      -1.732980e+00    
      46      -1.751453e+00    
      47      -1.757065e+00    
      48      -1.779070e+00    
      49      -1.860354e+00    
      50      -1.882446e+00    
      51      -1.888038e+00    
      52      -1.914254e+00    
      53      -1.998529e+00    
      54      -2.025314e+00    
      55      -2.030486e+00    
      56      -2.062095e+00    
      57      -2.149343e+00    
      58      2.166424e+00     
      59      2.170593e+00     
      60      -2.181745e+00    
      61      -2.185551e+00    
      62      -2.225334e+00    
      63      2.302666e+00     
      64      -2.313134e+00    
      65      2.317390e+00     
      66      -2.354611e+00    
      67      -2.355793e+00    
      68      -2.403222e+00    
      69      -2.496044e+00    
      70      2.506836e+00     
      71      2.534294e+00     
      72      -2.542693e+00    
      73      -2.547559e+00    
      74      -2.602612e+00    
      75      -2.697319e+00    
      76      2.748409e+00     
      77      -2.756424e+00    
      78      -2.761492e+00    
      79      2.803664e+00     
      80      -2.828643e+00    
      81      2.907940e+00     
      82      2.911545e+00     
      83      -2.924489e+00    
      84      -3.006549e+00    
      85      -3.030186e+00    
      86      3.061142e+00     
      87      3.083023e+00     
      88      3.096006e+00     
      89      -3.098292e+00    
      90      3.164300e+00     
      91      -3.227471e+00    
      92      -3.310117e+00    
      93      -3.351073e+00    
      94      3.436400e+00     
      95      -3.498345e+00    
      96      3.522941e+00     
      97      3.589240e+00     
      98      -3.646853e+00    
      99      -3.729134e+00    
      100     3.777772e+00     
      101     -4.938270e+00    
      102     5.221257e+00     
      103     -5.682106e+00    
      104     -6.527850e+00    
      105     -6.839752e+00    
      106     7.273433e+00     
      107     1.250007e+01     
      108     2.069409e+01     
 
     NUMBER OF EIGENVALUES CONVERGED UPTO THIS ITERATION = 32
 
     ITERATION 9
      1       -8.272743e-01    
      2       -8.277009e-01    
      3       -8.543997e-01    
      4       -8.559204e-01    
      5       -8.975520e-01    
      6       -9.007040e-01    
      7       -9.321119e-01    
      8       -9.326800e-01    
      9       -9.524565e-01    
      10      -9.573108e-01    
      11      -9.639031e-01    
      12      -9.659102e-01    
      13      -1.013719e+00    
      14      -1.014901e+00    
      15      -1.018300e+00    
      16      -1.020910e+00    
      17      -1.077954e+00    
      18      -1.082447e+00    
      19      -1.084168e+00    
      20      -1.090704e+00    
      21      -1.149563e+00    
      22      -1.156596e+00    
      23      -1.157765e+00    
      24      -1.166877e+00    
      25      -1.228169e+00    
      26      -1.237026e+00    
      27      -1.238565e+00    
      28      -1.249484e+00    
      29      -1.313791e+00    
      30      -1.324047e+00    
      31      -1.326541e+00    
      32      -1.338969e+00    
      33      -1.406610e+00    
      34      -1.418311e+00    
      35      -1.421817e+00    
      36      -1.435871e+00    
      37      -1.506934e+00    
      38      -1.520380e+00    
      39      -1.524851e+00    
      40      -1.540932e+00    
      41      -1.615519e+00    
      42      -1.631124e+00    
      43      -1.636323e+00    
      44      -1.654988e+00    
      45      -1.732973e+00    
      46      -1.751444e+00    
      47      -1.757059e+00    
      48      -1.779058e+00    
      49      -1.860326e+00    
      50      -1.882413e+00    
      51      -1.888009e+00    
      52      -1.914222e+00    
      53      -1.998514e+00    
      54      -2.025233e+00    
      55      -2.030364e+00    
      56      -2.061987e+00    
      57      -2.148973e+00    
      58      2.165957e+00     
      59      2.170320e+00     
      60      -2.181505e+00    
      61      -2.185368e+00    
      62      -2.224271e+00    
      63      2.301151e+00     
      64      -2.312773e+00    
      65      2.316484e+00     
      66      -2.353542e+00    
      67      -2.354851e+00    
      68      -2.401881e+00    
      69      -2.493574e+00    
      70      2.504302e+00     
      71      2.530630e+00     
      72      -2.540562e+00    
      73      -2.544232e+00    
      74      -2.599093e+00    
      75      -2.692790e+00    
      76      2.743291e+00     
      77      -2.750639e+00    
      78      -2.752944e+00    
      79      2.792117e+00     
      80      -2.820850e+00    
      81      2.895908e+00     
      82      2.899650e+00     
      83      -2.914356e+00    
      84      -2.988760e+00    
      85      -3.010714e+00    
      86      3.049189e+00     
      87      3.061872e+00     
      88      3.068945e+00     
      89      -3.081430e+00    
      90      3.125746e+00     
      91      -3.198158e+00    
      92      -3.280421e+00    
      93      -3.327469e+00    
      94      3.392944e+00     
      95      -3.417686e+00    
      96      3.457201e+00     
      97      3.488961e+00     
      98      -3.584859e+00    
      99      -3.648504e+00    
      100     3.689073e+00     
      101     -4.789192e+00    
      102     4.946065e+00     
      103     -5.451205e+00    
      104     -6.219542e+00    
      105     6.259870e+00     
      106     -6.552828e+00    
      107     1.166123e+01     
      108     1.420057e+01     
 
     NUMBER OF EIGENVALUES CONVERGED UPTO THIS ITERATION = 41
 
     ITERATION 10
      1       -8.272743e-01    
      2       -8.277009e-01    
      3       -8.543997e-01    
      4       -8.559204e-01    
      5       -8.975520e-01    
      6       -9.007040e-01    
      7       -9.321119e-01    
      8       -9.326800e-01    
      9       -9.524565e-01    
      10      -9.573108e-01    
      11      -9.639031e-01    
      12      -9.659102e-01    
      13      -1.013719e+00    
      14      -1.014901e+00    
      15      -1.018300e+00    
      16      -1.020910e+00    
      17      -1.077954e+00    
      18      -1.082447e+00    
      19      -1.084168e+00    
      20      -1.090704e+00    
      21      -1.149563e+00    
      22      -1.156596e+00    
      23      -1.157765e+00    
      24      -1.166877e+00    
      25      -1.228169e+00    
      26      -1.237026e+00    
      27      -1.238565e+00    
      28      -1.249484e+00    
      29      -1.313791e+00    
      30      -1.324047e+00    
      31      -1.326541e+00    
      32      -1.338969e+00    
      33      -1.406610e+00    
      34      -1.418311e+00    
      35      -1.421817e+00    
      36      -1.435871e+00    
      37      -1.506934e+00    
      38      -1.520380e+00    
      39      -1.524851e+00    
      40      -1.540931e+00    
      41      -1.615519e+00    
      42      -1.631123e+00    
      43      -1.636323e+00    
      44      -1.654987e+00    
      45      -1.732972e+00    
      46      -1.751442e+00    
      47      -1.757058e+00    
      48      -1.779055e+00    
      49      -1.860319e+00    
      50      -1.882406e+00    
      51      -1.888003e+00    
      52      -1.914213e+00    
      53      -1.998511e+00    
      54      -2.025212e+00    
      55      -2.030331e+00    
      56      -2.061952e+00    
      57      -2.148861e+00    
      58      2.165800e+00     
      59      2.170230e+00     
      60      -2.181428e+00    
      61      -2.185311e+00    
      62      -2.223863e+00    
      63      2.300577e+00     
      64      -2.312666e+00    
      65      2.316153e+00     
      66      -2.352882e+00    
      67      -2.354668e+00    
      68      -2.401327e+00    
      69      -2.492457e+00    
      70      2.503112e+00     
      71      2.529038e+00     
      72      -2.539513e+00    
      73      -2.542672e+00    
      74      -2.597429e+00    
      75      -2.690227e+00    
      76      2.740878e+00     
      77      -2.746321e+00    
      78      -2.750272e+00    
      79      2.785199e+00     
      80      -2.816471e+00    
      81      2.888891e+00     
      82      2.893180e+00     
      83      -2.908927e+00    
      84      -2.977952e+00    
      85      -2.999219e+00    
      86      3.033579e+00     
      87      3.050683e+00     
      88      3.061124e+00     
      89      -3.070133e+00    
      90      3.101653e+00     
      91      -3.178907e+00    
      92      -3.262615e+00    
      93      -3.302452e+00    
      94      3.360515e+00     
      95      -3.373819e+00    
      96      3.409471e+00     
      97      3.431520e+00     
      98      -3.535368e+00    
      99      -3.608311e+00    
      100     3.630574e+00     
      101     -4.623763e+00    
      102     4.674488e+00     
      103     -5.231059e+00    
      104     5.626432e+00     
      105     -5.957393e+00    
      106     -6.368914e+00    
      107     9.281301e+00     
      108     1.313422e+01     
 
     NUMBER OF EIGENVALUES CONVERGED UPTO THIS ITERATION = 46
 
     ITERATION 11
      1       -8.272743e-01    
      2       -8.277009e-01    
      3       -8.543997e-01    
      4       -8.559204e-01    
      5       -8.975520e-01    
      6       -9.007040e-01    
      7       -9.321119e-01    
      8       -9.326800e-01    
      9       -9.524565e-01    
      10      -9.573108e-01    
      11      -9.639031e-01    
      12      -9.659102e-01    
      13      -1.013719e+00    
      14      -1.014901e+00    
      15      -1.018300e+00    
      16      -1.020910e+00    
      17      -1.077954e+00    
      18      -1.082447e+00    
      19      -1.084168e+00    
      20      -1.090704e+00    
      21      -1.149563e+00    
      22      -1.156596e+00    
      23      -1.157765e+00    
      24      -1.166877e+00    
      25      -1.228169e+00    
      26      -1.237026e+00    
      27      -1.238565e+00    
      28      -1.249484e+00    
      29      -1.313791e+00    
      30      -1.324047e+00    
      31      -1.326541e+00    
      32      -1.338969e+00    
      33      -1.406610e+00    
      34      -1.418311e+00    
      35      -1.421817e+00    
      36      -1.435871e+00    
      37      -1.506934e+00    
      38      -1.520380e+00    
      39      -1.524851e+00    
      40      -1.540931e+00    
      41      -1.615519e+00    
      42      -1.631123e+00    
      43      -1.636323e+00    
      44      -1.654987e+00    
      45      -1.732971e+00    
      46      -1.751441e+00    
      47      -1.757058e+00    
      48      -1.779054e+00    
      49      -1.860317e+00    
      50      -1.882404e+00    
      51      -1.888001e+00    
      52      -1.914211e+00    
      53      -1.998510e+00    
      54      -2.025207e+00    
      55      -2.030322e+00    
      56      -2.061942e+00    
      57      -2.148828e+00    
      58      2.165748e+00     
      59      2.170200e+00     
      60      -2.181404e+00    
      61      -2.185293e+00    
      62      -2.223711e+00    
      63      2.300358e+00     
      64      -2.312634e+00    
      65      2.316032e+00     
      66      -2.352593e+00    
      67      -2.354610e+00    
      68      -2.401095e+00    
      69      -2.491950e+00    
      70      2.502535e+00     
      71      2.528350e+00     
      72      -2.539017e+00    
      73      -2.541935e+00    
      74      -2.596647e+00    
      75      -2.688844e+00    
      76      2.739739e+00     
      77      -2.744036e+00    
      78      -2.749100e+00    
      79      2.781156e+00     
      80      -2.814036e+00    
      81      2.885010e+00     
      82      2.889503e+00     
      83      -2.905993e+00    
      84      -2.971903e+00    
      85      -2.991647e+00    
      86      3.021996e+00     
      87      3.046441e+00     
      88      3.056709e+00     
      89      -3.062656e+00    
      90      3.085794e+00     
      91      -3.166340e+00    
      92      -3.250369e+00    
      93      -3.279815e+00    
      94      3.336720e+00     
      95      -3.352423e+00    
      96      3.374216e+00     
      97      3.397269e+00     
      98      -3.500169e+00    
      99      -3.583123e+00    
      100     3.588104e+00     
      101     4.436489e+00     
      102     -4.465929e+00    
      103     -5.025676e+00    
      104     5.190760e+00     
      105     -5.706591e+00    
      106     -6.239319e+00    
      107     7.446043e+00     
      108     1.307928e+01     
 
     NUMBER OF EIGENVALUES CONVERGED UPTO THIS ITERATION = 51
 
     ITERATION 12
      1       -8.272743e-01    
      2       -8.277009e-01    
      3       -8.543997e-01    
      4       -8.559204e-01    
      5       -8.975520e-01    
      6       -9.007040e-01    
      7       -9.321119e-01    
      8       -9.326800e-01    
      9       -9.524565e-01    
      10      -9.573108e-01    
      11      -9.639031e-01    
      12      -9.659102e-01    
      13      -1.013719e+00    
      14      -1.014901e+00    
      15      -1.018300e+00    
      16      -1.020910e+00    
      17      -1.077954e+00    
      18      -1.082447e+00    
      19      -1.084168e+00    
      20      -1.090704e+00    
      21      -1.149563e+00    
      22      -1.156596e+00    
      23      -1.157765e+00    
      24      -1.166877e+00    
      25      -1.228169e+00    
      26      -1.237026e+00    
      27      -1.238565e+00    
      28      -1.249484e+00    
      29      -1.313791e+00    
      30      -1.324047e+00    
      31      -1.326541e+00    
      32      -1.338969e+00    
      33      -1.406610e+00    
      34      -1.418311e+00    
      35      -1.421817e+00    
      36      -1.435871e+00    
      37      -1.506934e+00    
      38      -1.520380e+00    
      39      -1.524851e+00    
      40      -1.540931e+00    
      41      -1.615519e+00    
      42      -1.631123e+00    
      43      -1.636323e+00    
      44      -1.654987e+00    
      45      -1.732971e+00    
      46      -1.751441e+00    
      47      -1.757058e+00    
      48      -1.779054e+00    
      49      -1.860317e+00    
      50      -1.882403e+00    
      51      -1.888001e+00    
      52      -1.914210e+00    
      53      -1.998510e+00    
      54      -2.025205e+00    
      55      -2.030320e+00    
      56      -2.061938e+00    
      57      -2.148818e+00    
      58      2.165731e+00     
      59      2.170190e+00     
      60      -2.181396e+00    
      61      -2.185287e+00    
      62      -2.223654e+00    
      63      2.300275e+00     
      64      -2.312624e+00    
      65      2.315987e+00     
      66      -2.352472e+00    
      67      -2.354589e+00    
      68      -2.400996e+00    
      69      -2.491718e+00    
      70      2.502250e+00     
      71      2.528055e+00     
      72      -2.538791e+00    
      73      -2.541584e+00    
      74      -2.596278e+00    
      75      -2.688122e+00    
      76      2.739191e+00     
      77      -2.742854e+00    
      78      -2.748529e+00    
      79      2.778845e+00     
      80      -2.812710e+00    
      81      2.882858e+00     
      82      2.887418e+00     
      83      -2.904392e+00    
      84      -2.968592e+00    
      85      -2.986508e+00    
      86      3.014844e+00     
      87      3.043928e+00     
      88      3.054082e+00     
      89      -3.057813e+00    
      90      3.075022e+00     
      91      -3.157954e+00    
      92      -3.241364e+00    
      93      -3.263326e+00    
      94      3.319665e+00     
      95      -3.340722e+00    
      96      3.348557e+00     
      97      3.375047e+00     
      98      -3.475711e+00    
      99      3.555196e+00     
      100     -3.564951e+00    
      101     4.242618e+00     
      102     -4.325603e+00    
      103     -4.837723e+00    
      104     4.867124e+00     
      105     -5.470301e+00    
      106     -6.121802e+00    
      107     6.259699e+00     
      108     1.308821e+01     
 
     NUMBER OF EIGENVALUES CONVERGED UPTO THIS ITERATION = 54
 
     ITERATION 13
      1       -8.272743e-01    
      2       -8.277009e-01    
      3       -8.543997e-01    
      4       -8.559204e-01    
      5       -8.975520e-01    
      6       -9.007040e-01    
      7       -9.321119e-01    
      8       -9.326800e-01    
      9       -9.524565e-01    
      10      -9.573108e-01    
      11      -9.639031e-01    
      12      -9.659102e-01    
      13      -1.013719e+00    
      14      -1.014901e+00    
      15      -1.018300e+00    
      16      -1.020910e+00    
      17      -1.077954e+00    
      18      -1.082447e+00    
      19      -1.084168e+00    
      20      -1.090704e+00    
      21      -1.149563e+00    
      22      -1.156596e+00    
      23      -1.157765e+00    
      24      -1.166877e+00    
      25      -1.228169e+00    
      26      -1.237026e+00    
      27      -1.238565e+00    
      28      -1.249484e+00    
      29      -1.313791e+00    
      30      -1.324047e+00    
      31      -1.326541e+00    
      32      -1.338969e+00    
      33      -1.406610e+00    
      34      -1.418311e+00    
      35      -1.421817e+00    
      36      -1.435871e+00    
      37      -1.506934e+00    
      38      -1.520380e+00    
      39      -1.524851e+00    
      40      -1.540931e+00    
      41      -1.615519e+00    
      42      -1.631123e+00    
      43      -1.636323e+00    
      44      -1.654987e+00    
      45      -1.732971e+00    
      46      -1.751441e+00    
      47      -1.757058e+00    
      48      -1.779054e+00    
      49      -1.860316e+00    
      50      -1.882403e+00    
      51      -1.888001e+00    
      52      -1.914210e+00    
      53      -1.998510e+00    
      54      -2.025205e+00    
      55      -2.030319e+00    
      56      -2.061937e+00    
      57      -2.148815e+00    
      58      2.165725e+00     
      59      2.170186e+00     
      60      -2.181394e+00    
      61      -2.185285e+00    
      62      -2.223634e+00    
      63      2.300243e+00     
      64      -2.312621e+00    
      65      2.315970e+00     
      66      -2.352423e+00    
      67      -2.354581e+00    
      68      -2.400955e+00    
      69      -2.491610e+00    
      70      2.502108e+00     
      71      2.527929e+00     
      72      -2.538689e+00    
      73      -2.541416e+00    
      74      -2.596102e+00    
      75      -2.687752e+00    
      76      2.738921e+00     
      77      -2.742227e+00    
      78      -2.748242e+00    
      79      2.777548e+00     
      80      -2.812003e+00    
      81      2.881642e+00     
      82      2.886245e+00     
      83      -2.903505e+00    
      84      -2.966774e+00    
      85      -2.983042e+00    
      86      3.010380e+00     
      87      3.042214e+00     
      88      3.052434e+00     
      89      -3.054737e+00    
      90      3.067584e+00     
      91      -3.152252e+00    
      92      -3.234526e+00    
      93      -3.252296e+00    
      94      3.307180e+00     
      95      3.330522e+00     
      96      -3.333423e+00    
      97      3.359566e+00     
      98      -3.458502e+00    
      99      3.527899e+00     
      100     -3.550964e+00    
      101     4.090245e+00     
      102     -4.203935e+00    
      103     4.615326e+00     
      104     -4.669807e+00    
      105     -5.253581e+00    
      106     5.468957e+00     
      107     -5.997746e+00    
      108     1.306200e+01     
 
     NUMBER OF EIGENVALUES CONVERGED UPTO THIS ITERATION = 57
 
     ITERATION 14
      1       -8.272743e-01    
      2       -8.277009e-01    
      3       -8.543997e-01    
      4       -8.559204e-01    
      5       -8.975520e-01    
      6       -9.007040e-01    
      7       -9.321119e-01    
      8       -9.326800e-01    
      9       -9.524565e-01    
      10      -9.573108e-01    
      11      -9.639031e-01    
      12      -9.659102e-01    
      13      -1.013719e+00    
      14      -1.014901e+00    
      15      -1.018300e+00    
      16      -1.020910e+00    
      17      -1.077954e+00    
      18      -1.082447e+00    
      19      -1.084168e+00    
      20      -1.090704e+00    
      21      -1.149563e+00    
      22      -1.156596e+00    
      23      -1.157765e+00    
      24      -1.166877e+00    
      25      -1.228169e+00    
      26      -1.237026e+00    
      27      -1.238565e+00    
      28      -1.249484e+00    
      29      -1.313791e+00    
      30      -1.324047e+00    
      31      -1.326541e+00    
      32      -1.338969e+00    
      33      -1.406610e+00    
      34      -1.418311e+00    
      35      -1.421817e+00    
      36      -1.435871e+00    
      37      -1.506934e+00    
      38      -1.520380e+00    
      39      -1.524851e+00    
      40      -1.540931e+00    
      41      -1.615519e+00    
      42      -1.631123e+00    
      43      -1.636323e+00    
      44      -1.654987e+00    
      45      -1.732971e+00    
      46      -1.751441e+00    
      47      -1.757058e+00    
      48      -1.779054e+00    
      49      -1.860316e+00    
      50      -1.882403e+00    
      51      -1.888001e+00    
      52      -1.914210e+00    
      53      -1.998510e+00    
      54      -2.025205e+00    
      55      -2.030319e+00    
      56      -2.061937e+00    
      57      -2.148814e+00    
      58      2.165723e+00     
      59      2.170185e+00     
      60      -2.181393e+00    
      61      -2.185285e+00    
      62      -2.223626e+00    
      63      2.300231e+00     
      64      -2.312620e+00    
      65      2.315964e+00     
      66      -2.352403e+00    
      67      -2.354578e+00    
      68      -2.400937e+00    
      69      -2.491559e+00    
      70      2.502039e+00     
      71      2.527875e+00     
      72      -2.538645e+00    
      73      -2.541336e+00    
      74      -2.596016e+00    
      75      -2.687564e+00    
      76      2.738785e+00     
      77      -2.741887e+00    
      78      -2.748097e+00    
      79      2.776832e+00     
      80      -2.811634e+00    
      81      2.880941e+00     
      82      2.885591e+00     
      83      -2.903006e+00    
      84      -2.965760e+00    
      85      -2.980741e+00    
      86      3.007518e+00     
      87      3.040941e+00     
      88      3.051335e+00     
      89      -3.052814e+00    
      90      3.062429e+00     
      91      -3.148322e+00    
      92      -3.229234e+00    
      93      -3.245049e+00    
      94      3.297565e+00     
      95      3.318425e+00     
      96      -3.328521e+00    
      97      3.348194e+00     
      98      -3.446144e+00    
      99      3.503729e+00     
      100     -3.539823e+00    
      101     3.972447e+00     
      102     -4.099025e+00    
      103     4.414637e+00     
      104     -4.523099e+00    
      105     4.927327e+00     
      106     -5.059205e+00    
      107     -5.863425e+00    
      108     1.299342e+01     
 
     NUMBER OF EIGENVALUES CONVERGED UPTO THIS ITERATION = 62
 
     ITERATION 15
      1       -8.272743e-01    
      2       -8.277009e-01    
      3       -8.543997e-01    
      4       -8.559204e-01    
      5       -8.975520e-01    
      6       -9.007040e-01    
      7       -9.321119e-01    
      8       -9.326800e-01    
      9       -9.524565e-01    
      10      -9.573108e-01    
      11      -9.639031e-01    
      12      -9.659102e-01    
      13      -1.013719e+00    
      14      -1.014901e+00    
      15      -1.018300e+00    
      16      -1.020910e+00    
      17      -1.077954e+00    
      18      -1.082447e+00    
      19      -1.084168e+00    
      20      -1.090704e+00    
      21      -1.149563e+00    
      22      -1.156596e+00    
      23      -1.157765e+00    
      24      -1.166877e+00    
      25      -1.228169e+00    
      26      -1.237026e+00    
      27      -1.238565e+00    
      28      -1.249484e+00    
      29      -1.313791e+00    
      30      -1.324047e+00    
      31      -1.326541e+00    
      32      -1.338969e+00    
      33      -1.406610e+00    
      34      -1.418311e+00    
      35      -1.421817e+00    
      36      -1.435871e+00    
      37      -1.506934e+00    
      38      -1.520380e+00    
      39      -1.524851e+00    
      40      -1.540931e+00    
      41      -1.615519e+00    
      42      -1.631123e+00    
      43      -1.636323e+00    
      44      -1.654987e+00    
      45      -1.732971e+00    
      46      -1.751441e+00    
      47      -1.757058e+00    
      48      -1.779054e+00    
      49      -1.860316e+00    
      50      -1.882403e+00    
      51      -1.888001e+00    
      52      -1.914210e+00    
      53      -1.998510e+00    
      54      -2.025205e+00    
      55      -2.030319e+00    
      56      -2.061937e+00    
      57      -2.148814e+00    
      58      2.165723e+00     
      59      2.170185e+00     
      60      -2.181393e+00    
      61      -2.185284e+00    
      62      -2.223623e+00    
      63      2.300226e+00     
      64      -2.312620e+00    
      65      2.315962e+00     
      66      -2.352395e+00    
      67      -2.354577e+00    
      68      -2.400930e+00    
      69      -2.491536e+00    
      70      2.502005e+00     
      71      2.527852e+00     
      72      -2.538625e+00    
      73      -2.541298e+00    
      74      -2.595975e+00    
      75      -2.687469e+00    
      76      2.738714e+00     
      77      -2.741699e+00    
      78      -2.748022e+00    
      79      2.776444e+00     
      80      -2.811443e+00    
      81      2.880531e+00     
      82      2.885227e+00     
      83      -2.902721e+00    
      84      -2.965179e+00    
      85      -2.979240e+00    
      86      3.005636e+00     
      87      3.039950e+00     
      88      3.050548e+00     
      89      -3.051625e+00    
      90      3.058888e+00     
      91      -3.145584e+00    
      92      -3.225083e+00    
      93      -3.240274e+00    
      94      3.289955e+00     
      95      3.310584e+00     
      96      -3.325091e+00    
      97      3.339467e+00     
      98      -3.437073e+00    
      99      3.481242e+00     
      100     -3.530758e+00    
      101     3.882185e+00     
      102     -4.008516e+00    
      103     4.252348e+00     
      104     -4.397142e+00    
      105     4.550849e+00     
      106     -4.888089e+00    
      107     -5.721516e+00    
      108     1.289762e+01     
 
     NUMBER OF EIGENVALUES CONVERGED UPTO THIS ITERATION = 64
 
     ITERATION 16
      1       -8.272743e-01    
      2       -8.277009e-01    
      3       -8.543997e-01    
      4       -8.559204e-01    
      5       -8.975520e-01    
      6       -9.007040e-01    
      7       -9.321119e-01    
      8       -9.326800e-01    
      9       -9.524565e-01    
      10      -9.573108e-01    
      11      -9.639031e-01    
      12      -9.659102e-01    
      13      -1.013719e+00    
      14      -1.014901e+00    
      15      -1.018300e+00    
      16      -1.020910e+00    
      17      -1.077954e+00    
      18      -1.082447e+00    
      19      -1.084168e+00    
      20      -1.090704e+00    
      21      -1.149563e+00    
      22      -1.156596e+00    
      23      -1.157765e+00    
      24      -1.166877e+00    
      25      -1.228169e+00    
      26      -1.237026e+00    
      27      -1.238565e+00    
      28      -1.249484e+00    
      29      -1.313791e+00    
      30      -1.324047e+00    
      31      -1.326541e+00    
      32      -1.338969e+00    
      33      -1.406610e+00    
      34      -1.418311e+00    
      35      -1.421817e+00    
      36      -1.435871e+00    
      37      -1.506934e+00    
      38      -1.520380e+00    
      39      -1.524851e+00    
      40      -1.540931e+00    
      41      -1.615519e+00    
      42      -1.631123e+00    
      43      -1.636323e+00    
      44      -1.654987e+00    
      45      -1.732971e+00    
      46      -1.751441e+00    
      47      -1.757058e+00    
      48      -1.779054e+00    
      49      -1.860316e+00    
      50      -1.882403e+00    
      51      -1.888001e+00    
      52      -1.914210e+00    
      53      -1.998510e+00    
      54      -2.025205e+00    
      55      -2.030319e+00    
      56      -2.061937e+00    
      57      -2.148814e+00    
      58      2.165723e+00     
      59      2.170184e+00     
      60      -2.181392e+00    
      61      -2.185284e+00    
      62      -2.223623e+00    
      63      2.300224e+00     
      64      -2.312620e+00    
      65      2.315961e+00     
      66      -2.352392e+00    
      67      -2.354577e+00    
      68      -2.400927e+00    
      69      -2.491525e+00    
      70      2.501989e+00     
      71      2.527842e+00     
      72      -2.538617e+00    
      73      -2.541280e+00    
      74      -2.595954e+00    
      75      -2.687421e+00    
      76      2.738677e+00     
      77      -2.741594e+00    
      78      -2.747983e+00    
      79      2.776237e+00     
      80      -2.811345e+00    
      81      2.880292e+00     
      82      2.885025e+00     
      83      -2.902556e+00    
      84      -2.964839e+00    
      85      -2.978271e+00    
      86      3.004374e+00     
      87      3.039166e+00     
      88      3.049937e+00     
      89      -3.050894e+00    
      90      3.056501e+00     
      91      -3.143660e+00    
      92      -3.221798e+00    
      93      -3.237104e+00    
      94      3.284013e+00     
      95      3.305501e+00     
      96      -3.322619e+00    
      97      3.332489e+00     
      98      -3.430267e+00    
      99      3.459820e+00     
      100     -3.523279e+00    
      101     3.813459e+00     
      102     -3.930431e+00    
      103     4.118922e+00     
      104     4.288781e+00     
      105     -4.290262e+00    
      106     -4.739672e+00    
      107     -5.576497e+00    
      108     1.279189e+01     
 
     NUMBER OF EIGENVALUES CONVERGED UPTO THIS ITERATION = 66
 
     ITERATION 17
      1       -8.272743e-01    
      2       -8.277009e-01    
      3       -8.543997e-01    
      4       -8.559204e-01    
      5       -8.975520e-01    
      6       -9.007040e-01    
      7       -9.321119e-01    
      8       -9.326800e-01    
      9       -9.524565e-01    
      10      -9.573108e-01    
      11      -9.639031e-01    
      12      -9.659102e-01    
      13      -1.013719e+00    
      14      -1.014901e+00    
      15      -1.018300e+00    
      16      -1.020910e+00    
      17      -1.077954e+00    
      18      -1.082447e+00    
      19      -1.084168e+00    
      20      -1.090704e+00    
      21      -1.149563e+00    
      22      -1.156596e+00    
      23      -1.157765e+00    
      24      -1.166877e+00    
      25      -1.228169e+00    
      26      -1.237026e+00    
      27      -1.238565e+00    
      28      -1.249484e+00    
      29      -1.313791e+00    
      30      -1.324047e+00    
      31      -1.326541e+00    
      32      -1.338969e+00    
      33      -1.406610e+00    
      34      -1.418311e+00    
      35      -1.421817e+00    
      36      -1.435871e+00    
      37      -1.506934e+00    
      38      -1.520380e+00    
      39      -1.524851e+00    
      40      -1.540931e+00    
      41      -1.615519e+00    
      42      -1.631123e+00    
      43      -1.636323e+00    
      44      -1.654987e+00    
      45      -1.732971e+00    
      46      -1.751441e+00    
      47      -1.757058e+00    
      48      -1.779054e+00    
      49      -1.860316e+00    
      50      -1.882403e+00    
      51      -1.888001e+00    
      52      -1.914210e+00    
      53      -1.998510e+00    
      54      -2.025205e+00    
      55      -2.030319e+00    
      56      -2.061937e+00    
      57      -2.148814e+00    
      58      2.165722e+00     
      59      2.170184e+00     
      60      -2.181392e+00    
      61      -2.185284e+00    
      62      -2.223622e+00    
      63      2.300224e+00     
      64      -2.312620e+00    
      65      2.315961e+00     
      66      -2.352390e+00    
      67      -2.354576e+00    
      68      -2.400926e+00    
      69      -2.491520e+00    
      70      2.501981e+00     
      71      2.527838e+00     
      72      -2.538613e+00    
      73      -2.541272e+00    
      74      -2.595944e+00    
      75      -2.687397e+00    
      76      2.738658e+00     
      77      -2.741535e+00    
      78      -2.747963e+00    
      79      2.776127e+00     
      80      -2.811296e+00    
      81      2.880152e+00     
      82      2.884914e+00     
      83      -2.902459e+00    
      84      -2.964634e+00    
      85      -2.977653e+00    
      86      3.003516e+00     
      87      3.038552e+00     
      88      3.049431e+00     
      89      -3.050448e+00    
      90      3.054936e+00     
      91      -3.142296e+00    
      92      -3.219183e+00    
      93      -3.234984e+00    
      94      3.279492e+00     
      95      3.302121e+00     
      96      -3.320793e+00    
      97      3.326685e+00     
      98      -3.425043e+00    
      99      3.439512e+00     
      100     -3.517043e+00    
      101     3.761374e+00     
      102     -3.863265e+00    
      103     4.005843e+00     
      104     4.109433e+00     
      105     -4.200119e+00    
      106     -4.612336e+00    
      107     -5.432584e+00    
      108     1.268864e+01     
 
     NUMBER OF EIGENVALUES CONVERGED UPTO THIS ITERATION = 68
 
     ITERATION 18
      1       -8.272743e-01    
      2       -8.277009e-01    
      3       -8.543997e-01    
      4       -8.559204e-01    
      5       -8.975520e-01    
      6       -9.007040e-01    
      7       -9.321119e-01    
      8       -9.326800e-01    
      9       -9.524565e-01    
      10      -9.573108e-01    
      11      -9.639031e-01    
      12      -9.659102e-01    
      13      -1.013719e+00    
      14      -1.014901e+00    
      15      -1.018300e+00    
      16      -1.020910e+00    
      17      -1.077954e+00    
      18      -1.082447e+00    
      19      -1.084168e+00    
      20      -1.090704e+00    
      21      -1.149563e+00    
      22      -1.156596e+00    
      23      -1.157765e+00    
      24      -1.166877e+00    
      25      -1.228169e+00    
      26      -1.237026e+00    
      27      -1.238565e+00    
      28      -1.249484e+00    
      29      -1.313791e+00    
      30      -1.324047e+00    
      31      -1.326541e+00    
      32      -1.338969e+00    
      33      -1.406610e+00    
      34      -1.418311e+00    
      35      -1.421817e+00    
      36      -1.435871e+00    
      37      -1.506934e+00    
      38      -1.520380e+00    
      39      -1.524851e+00    
      40      -1.540931e+00    
      41      -1.615519e+00    
      42      -1.631123e+00    
      43      -1.636323e+00    
      44      -1.654987e+00    
      45      -1.732971e+00    
      46      -1.751441e+00    
      47      -1.757058e+00    
      48      -1.779054e+00    
      49      -1.860316e+00    
      50      -1.882403e+00    
      51      -1.888001e+00    
      52      -1.914210e+00    
      53      -1.998510e+00    
      54      -2.025205e+00    
      55      -2.030319e+00    
      56      -2.061937e+00    
      57      -2.148814e+00    
      58      2.165722e+00     
      59      2.170184e+00     
      60      -2.181392e+00    
      61      -2.185284e+00    
      62      -2.223622e+00    
      63      2.300224e+00     
      64      -2.312620e+00    
      65      2.315961e+00     
      66      -2.352390e+00    
      67      -2.354576e+00    
      68      -2.400925e+00    
      69      -2.491518e+00    
      70      2.501978e+00     
      71      2.527836e+00     
      72      -2.538611e+00    
      73      -2.541268e+00    
      74      -2.595938e+00    
      75      -2.687385e+00    
      76      2.738648e+00     
      77      -2.741502e+00    
      78      -2.747952e+00    
      79      2.776070e+00     
      80      -2.811271e+00    
      81      2.880072e+00     
      82      2.884853e+00     
      83      -2.902402e+00    
      84      -2.964509e+00    
      85      -2.977260e+00    
      86      3.002932e+00     
      87      3.038082e+00     
      88      3.049008e+00     
      89      -3.050175e+00    
      90      3.053936e+00     
      91      -3.141323e+00    
      92      -3.217099e+00    
      93      -3.233555e+00    
      94      3.276121e+00     
      95      3.299800e+00     
      96      -3.319414e+00    
      97      3.321678e+00     
      98      3.420823e+00     
      99      -3.420939e+00    
      100     -3.511805e+00    
      101     3.721981e+00     
      102     -3.805832e+00    
      103     3.907697e+00     
      104     3.990084e+00     
      105     -4.124182e+00    
      106     -4.503852e+00    
      107     -5.293043e+00    
      108     1.259408e+01     
 
     NUMBER OF EIGENVALUES CONVERGED UPTO THIS ITERATION = 71
 
     ITERATION 19
      1       -8.272743e-01    
      2       -8.277009e-01    
      3       -8.543997e-01    
      4       -8.559204e-01    
      5       -8.975520e-01    
      6       -9.007040e-01    
      7       -9.321119e-01    
      8       -9.326800e-01    
      9       -9.524565e-01    
      10      -9.573108e-01    
      11      -9.639031e-01    
      12      -9.659102e-01    
      13      -1.013719e+00    
      14      -1.014901e+00    
      15      -1.018300e+00    
      16      -1.020910e+00    
      17      -1.077954e+00    
      18      -1.082447e+00    
      19      -1.084168e+00    
      20      -1.090704e+00    
      21      -1.149563e+00    
      22      -1.156596e+00    
      23      -1.157765e+00    
      24      -1.166877e+00    
      25      -1.228169e+00    
      26      -1.237026e+00    
      27      -1.238565e+00    
      28      -1.249484e+00    
      29      -1.313791e+00    
      30      -1.324047e+00    
      31      -1.326541e+00    
      32      -1.338969e+00    
      33      -1.406610e+00    
      34      -1.418311e+00    
      35      -1.421817e+00    
      36      -1.435871e+00    
      37      -1.506934e+00    
      38      -1.520380e+00    
      39      -1.524851e+00    
      40      -1.540931e+00    
      41      -1.615519e+00    
      42      -1.631123e+00    
      43      -1.636323e+00    
      44      -1.654987e+00    
      45      -1.732971e+00    
      46      -1.751441e+00    
      47      -1.757058e+00    
      48      -1.779054e+00    
      49      -1.860316e+00    
      50      -1.882403e+00    
      51      -1.888001e+00    
      52      -1.914210e+00    
      53      -1.998510e+00    
      54      -2.025205e+00    
      55      -2.030319e+00    
      56      -2.061937e+00    
      57      -2.148814e+00    
      58      2.165722e+00     
      59      2.170184e+00     
      60      -2.181392e+00    
      61      -2.185284e+00    
      62      -2.223622e+00    
      63      2.300224e+00     
      64      -2.312620e+00    
      65      2.315961e+00     
      66      -2.352390e+00    
      67      -2.354576e+00    
      68      -2.400925e+00    
      69      -2.491517e+00    
      70      2.501977e+00     
      71      2.527835e+00     
      72      -2.538610e+00    
      73      -2.541267e+00    
      74      -2.595936e+00    
      75      -2.687378e+00    
      76      2.738642e+00     
      77      -2.741484e+00    
      78      -2.747946e+00    
      79      2.776040e+00     
      80      -2.811259e+00    
      81      2.880027e+00     
      82      2.884819e+00     
      83      -2.902368e+00    
      84      -2.964430e+00    
      85      -2.977013e+00    
      86      3.002536e+00     
      87      3.037729e+00     
      88      3.048670e+00     
      89      -3.050008e+00    
      90      3.053308e+00     
      91      -3.140625e+00    
      92      -3.215440e+00    
      93      -3.232586e+00    
      94      3.273640e+00     
      95      3.298154e+00     
      96      3.317239e+00     
      97      -3.318350e+00    
      98      3.404391e+00     
      99      -3.417640e+00    
      100     -3.507378e+00    
      101     3.692131e+00     
      102     -3.757093e+00    
      103     3.826500e+00     
      104     3.908479e+00     
      105     -4.060069e+00    
      106     -4.411753e+00    
      107     -5.160114e+00    
      108     1.250928e+01     
 
     NUMBER OF EIGENVALUES CONVERGED UPTO THIS ITERATION = 73
 
     ITERATION 20
      1       -8.272743e-01    
      2       -8.277009e-01    
      3       -8.543997e-01    
      4       -8.559204e-01    
      5       -8.975520e-01    
      6       -9.007040e-01    
      7       -9.321119e-01    
      8       -9.326800e-01    
      9       -9.524565e-01    
      10      -9.573108e-01    
      11      -9.639031e-01    
      12      -9.659102e-01    
      13      -1.013719e+00    
      14      -1.014901e+00    
      15      -1.018300e+00    
      16      -1.020910e+00    
      17      -1.077954e+00    
      18      -1.082447e+00    
      19      -1.084168e+00    
      20      -1.090704e+00    
      21      -1.149563e+00    
      22      -1.156596e+00    
      23      -1.157765e+00    
      24      -1.166877e+00    
      25      -1.228169e+00    
      26      -1.237026e+00    
      27      -1.238565e+00    
      28      -1.249484e+00    
      29      -1.313791e+00    
      30      -1.324047e+00    
      31      -1.326541e+00    
      32      -1.338969e+00    
      33      -1.406610e+00    
      34      -1.418311e+00    
      35      -1.421817e+00    
      36      -1.435871e+00    
      37      -1.506934e+00    
      38      -1.520380e+00    
      39      -1.524851e+00    
      40      -1.540931e+00    
      41      -1.615519e+00    
      42      -1.631123e+00    
      43      -1.636323e+00    
      44      -1.654987e+00    
      45      -1.732971e+00    
      46      -1.751441e+00    
      47      -1.757058e+00    
      48      -1.779054e+00    
      49      -1.860316e+00    
      50      -1.882403e+00    
      51      -1.888001e+00    
      52      -1.914210e+00    
      53      -1.998510e+00    
      54      -2.025205e+00    
      55      -2.030319e+00    
      56      -2.061937e+00    
      57      -2.148814e+00    
      58      2.165722e+00     
      59      2.170184e+00     
      60      -2.181392e+00    
      61      -2.185284e+00    
      62      -2.223622e+00    
      63      2.300224e+00     
      64      -2.312620e+00    
      65      2.315961e+00     
      66      -2.352390e+00    
      67      -2.354576e+00    
      68      -2.400925e+00    
      69      -2.491516e+00    
      70      2.501976e+00     
      71      2.527835e+00     
      72      -2.538610e+00    
      73      -2.541266e+00    
      74      -2.595935e+00    
      75      -2.687375e+00    
      76      2.738640e+00     
      77      -2.741474e+00    
      78      -2.747943e+00    
      79      2.776025e+00     
      80      -2.811252e+00    
      81      2.880002e+00     
      82      2.884800e+00     
      83      -2.902348e+00    
      84      -2.964381e+00    
      85      -2.976857e+00    
      86      3.002271e+00     
      87      3.037472e+00     
      88      3.048413e+00     
      89      -3.049904e+00    
      90      3.052914e+00     
      91      -3.140123e+00    
      92      -3.214128e+00    
      93      -3.231924e+00    
      94      3.271829e+00     
      95      3.296951e+00     
      96      3.313256e+00     
      97      -3.317516e+00    
      98      3.390663e+00     
      99      -3.414930e+00    
      100     -3.503616e+00    
      101     3.669373e+00     
      102     -3.716056e+00    
      103     3.763742e+00     
      104     3.848442e+00     
      105     -4.005720e+00    
      106     -4.333584e+00    
      107     -5.035182e+00    
      108     1.243165e+01     
 
     NUMBER OF EIGENVALUES CONVERGED UPTO THIS ITERATION = 75
 
     ITERATION 21
      1       -8.272743e-01    
      2       -8.277009e-01    
      3       -8.543997e-01    
      4       -8.559204e-01    
      5       -8.975520e-01    
      6       -9.007040e-01    
      7       -9.321119e-01    
      8       -9.326800e-01    
      9       -9.524565e-01    
      10      -9.573108e-01    
      11      -9.639031e-01    
      12      -9.659102e-01    
      13      -1.013719e+00    
      14      -1.014901e+00    
      15      -1.018300e+00    
      16      -1.020910e+00    
      17      -1.077954e+00    
      18      -1.082447e+00    
      19      -1.084168e+00    
      20      -1.090704e+00    
      21      -1.149563e+00    
      22      -1.156596e+00    
      23      -1.157765e+00    
      24      -1.166877e+00    
      25      -1.228169e+00    
      26      -1.237026e+00    
      27      -1.238565e+00    
      28      -1.249484e+00    
      29      -1.313791e+00    
      30      -1.324047e+00    
      31      -1.326541e+00    
      32      -1.338969e+00    
      33      -1.406610e+00    
      34      -1.418311e+00    
      35      -1.421817e+00    
      36      -1.435871e+00    
      37      -1.506934e+00    
      38      -1.520380e+00    
      39      -1.524851e+00    
      40      -1.540931e+00    
      41      -1.615519e+00    
      42      -1.631123e+00    
      43      -1.636323e+00    
      44      -1.654987e+00    
      45      -1.732971e+00    
      46      -1.751441e+00    
      47      -1.757058e+00    
      48      -1.779054e+00    
      49      -1.860316e+00    
      50      -1.882403e+00    
      51      -1.888001e+00    
      52      -1.914210e+00    
      53      -1.998510e+00    
      54      -2.025205e+00    
      55      -2.030319e+00    
      56      -2.061937e+00    
      57      -2.148814e+00    
      58      2.165722e+00     
      59      2.170184e+00     
      60      -2.181392e+00    
      61      -2.185284e+00    
      62      -2.223622e+00    
      63      2.300223e+00     
      64      -2.312620e+00    
      65      2.315961e+00     
      66      -2.352390e+00    
      67      -2.354576e+00    
      68      -2.400925e+00    
      69      -2.491516e+00    
      70      2.501976e+00     
      71      2.527835e+00     
      72      -2.538610e+00    
      73      -2.541266e+00    
      74      -2.595934e+00    
      75      -2.687374e+00    
      76      2.738638e+00     
      77      -2.741468e+00    
      78      -2.747942e+00    
      79      2.776017e+00     
      80      -2.811249e+00    
      81      2.879988e+00     
      82      2.884790e+00     
      83      -2.902336e+00    
      84      -2.964349e+00    
      85      -2.976760e+00    
      86      3.002096e+00     
      87      3.037286e+00     
      88      3.048230e+00     
      89      -3.049840e+00    
      90      3.052666e+00     
      91      -3.139761e+00    
      92      -3.213095e+00    
      93      -3.231469e+00    
      94      3.270515e+00     
      95      3.296043e+00     
      96      3.309712e+00     
      97      -3.316853e+00    
      98      3.379729e+00     
      99      -3.412662e+00    
      100     -3.500408e+00    
      101     3.651849e+00     
      102     -3.681751e+00    
      103     3.716622e+00     
      104     3.802153e+00     
      105     -3.959435e+00    
      106     -4.267065e+00    
      107     -4.918989e+00    
      108     1.235640e+01     
 
     NUMBER OF EIGENVALUES CONVERGED UPTO THIS ITERATION = 77
 
     ITERATION 22
      1       -8.272743e-01    
      2       -8.277009e-01    
      3       -8.543997e-01    
      4       -8.559204e-01    
      5       -8.975520e-01    
      6       -9.007040e-01    
      7       -9.321119e-01    
      8       -9.326800e-01    
      9       -9.524565e-01    
      10      -9.573108e-01    
      11      -9.639031e-01    
      12      -9.659102e-01    
      13      -1.013719e+00    
      14      -1.014901e+00    
      15      -1.018300e+00    
      16      -1.020910e+00    
      17      -1.077954e+00    
      18      -1.082447e+00    
      19      -1.084168e+00    
      20      -1.090704e+00    
      21      -1.149563e+00    
      22      -1.156596e+00    
      23      -1.157765e+00    
      24      -1.166877e+00    
      25      -1.228169e+00    
      26      -1.237026e+00    
      27      -1.238565e+00    
      28      -1.249484e+00    
      29      -1.313791e+00    
      30      -1.324047e+00    
      31      -1.326541e+00    
      32      -1.338969e+00    
      33      -1.406610e+00    
      34      -1.418311e+00    
      35      -1.421817e+00    
      36      -1.435871e+00    
      37      -1.506934e+00    
      38      -1.520380e+00    
      39      -1.524851e+00    
      40      -1.540931e+00    
      41      -1.615519e+00    
      42      -1.631123e+00    
      43      -1.636323e+00    
      44      -1.654987e+00    
      45      -1.732971e+00    
      46      -1.751441e+00    
      47      -1.757058e+00    
      48      -1.779054e+00    
      49      -1.860316e+00    
      50      -1.882403e+00    
      51      -1.888001e+00    
      52      -1.914210e+00    
      53      -1.998510e+00    
      54      -2.025205e+00    
      55      -2.030319e+00    
      56      -2.061937e+00    
      57      -2.148814e+00    
      58      2.165722e+00     
      59      2.170184e+00     
      60      -2.181392e+00    
      61      -2.185284e+00    
      62      -2.223622e+00    
      63      2.300223e+00     
      64      -2.312620e+00    
      65      2.315961e+00     
      66      -2.352390e+00    
      67      -2.354576e+00    
      68      -2.400925e+00    
      69      -2.491516e+00    
      70      2.501975e+00     
      71      2.527835e+00     
      72      -2.538610e+00    
      73      -2.541265e+00    
      74      -2.595934e+00    
      75      -2.687373e+00    
      76      2.738638e+00     
      77      -2.741465e+00    
      78      -2.747941e+00    
      79      2.776013e+00     
      80      -2.811248e+00    
      81      2.879981e+00     
      82      2.884784e+00     
      83      -2.902328e+00    
      84      -2.964329e+00    
      85      -2.976699e+00    
      86      3.001984e+00     
      87      3.037155e+00     
      88      3.048106e+00     
      89      -3.049800e+00    
      90      3.052508e+00     
      91      -3.139501e+00    
      92      -3.212290e+00    
      93      -3.231154e+00    
      94      3.269568e+00     
      95      3.295336e+00     
      96      3.306638e+00     
      97      -3.316320e+00    
      98      3.371349e+00     
      99      -3.410737e+00    
      100     -3.497661e+00    
      101     3.638158e+00     
      102     -3.653242e+00    
      103     3.681441e+00     
      104     3.765688e+00     
      105     -3.919846e+00    
      106     -4.210158e+00    
      107     -4.811823e+00    
      108     1.227760e+01     
 
     NUMBER OF EIGENVALUES CONVERGED UPTO THIS ITERATION = 78
 
     ITERATION 23
      1       -8.272743e-01    
      2       -8.277009e-01    
      3       -8.543997e-01    
[...]
      6       -9.007040e-01    
      7       -9.321119e-01    
      8       -9.326800e-01    
      9       -9.524565e-01    
      10      -9.573108e-01    
      11      -9.639031e-01    
      12      -9.659102e-01    
      13      -1.013719e+00    
      14      -1.014901e+00    
      15      -1.018300e+00    
      16      -1.020910e+00    
      17      -1.077954e+00    
      18      -1.082447e+00    
      19      -1.084168e+00    
      20      -1.090704e+00    
      21      -1.149563e+00    
      22      -1.156596e+00    
      23      -1.157765e+00    
      24      -1.166877e+00    
      25      -1.228169e+00    
      26      -1.237026e+00    
      27      -1.238565e+00    
      28      -1.249484e+00    
      29      -1.313791e+00    
      30      -1.324047e+00    
      31      -1.326541e+00    
      32      -1.338969e+00    
      33      -1.406610e+00    
      34      -1.418311e+00    
      35      -1.421817e+00    
      36      -1.435871e+00    
      37      -1.506934e+00    
      38      -1.520380e+00    
      39      -1.524851e+00    
      40      -1.540931e+00    
      41      -1.615519e+00    
      42      -1.631123e+00    
      43      -1.636323e+00    
      44      -1.654987e+00    
      45      -1.732971e+00    
      46      -1.751441e+00    
      47      -1.757058e+00    
      48      -1.779054e+00    
      49      -1.860316e+00    
      50      -1.882403e+00    
      51      -1.888001e+00    
      52      -1.914210e+00    
      53      -1.998510e+00    
      54      -2.025205e+00    
      55      -2.030319e+00    
      56      -2.061937e+00    
      57      -2.148814e+00    
      58      2.165722e+00     
      59      2.170184e+00     
      60      -2.181392e+00    
      61      -2.185284e+00    
      62      -2.223622e+00    
      63      2.300223e+00     
      64      -2.312620e+00    
      65      2.315961e+00     
      66      -2.352390e+00    
      67      -2.354576e+00    
      68      -2.400925e+00    
      69      -2.491516e+00    
      70      2.501975e+00     
      71      2.527835e+00     
      72      -2.538610e+00    
      73      -2.541265e+00    
      74      -2.595933e+00    
      75      -2.687372e+00    
      76      2.738637e+00     
      77      -2.741461e+00    
      78      -2.747940e+00    
      79      2.776009e+00     
      80      -2.811246e+00    
      81      2.879973e+00     
      82      2.884777e+00     
      83      -2.902317e+00    
      84      -2.964293e+00    
      85      -2.976603e+00    
      86      3.001794e+00     
      87      3.036857e+00     
      88      3.047880e+00     
      89      -3.049727e+00    
      90      3.052211e+00     
      91      -3.138851e+00    
      92      -3.209758e+00    
      93      -3.230367e+00    
      94      3.267319e+00     
      95      3.292318e+00     
      96      3.295129e+00     
      97      -3.314209e+00    
      98      3.348159e+00     
      99      -3.399780e+00    
      100     -3.481076e+00    
      101     -3.512656e+00    
      102     3.545117e+00     
      103     3.581707e+00     
      104     3.609584e+00     
      105     -3.613488e+00    
      106     -3.697153e+00    
      107     -3.872245e+00    
      108     4.362000e+00     
 
     NUMBER OF EIGENVALUES CONVERGED UPTO THIS ITERATION = 99
 
     ITERATION 64
      1       -8.272743e-01    
      2       -8.277009e-01    
      3       -8.543997e-01    
      4       -8.559204e-01    
      5       -8.975520e-01    
      6       -9.007040e-01    
      7       -9.321119e-01    
      8       -9.326800e-01    
      9       -9.524565e-01    
      10      -9.573108e-01    
      11      -9.639031e-01    
      12      -9.659102e-01    
      13      -1.013719e+00    
      14      -1.014901e+00    
      15      -1.018300e+00    
      16      -1.020910e+00    
      17      -1.077954e+00    
      18      -1.082447e+00    
      19      -1.084168e+00    
      20      -1.090704e+00    
      21      -1.149563e+00    
      22      -1.156596e+00    
      23      -1.157765e+00    
      24      -1.166877e+00    
      25      -1.228169e+00    
      26      -1.237026e+00    
      27      -1.238565e+00    
      28      -1.249484e+00    
      29      -1.313791e+00    
      30      -1.324047e+00    
      31      -1.326541e+00    
      32      -1.338969e+00    
      33      -1.406610e+00    
      34      -1.418311e+00    
      35      -1.421817e+00    
      36      -1.435871e+00    
      37      -1.506934e+00    
      38      -1.520380e+00    
      39      -1.524851e+00    
      40      -1.540931e+00    
      41      -1.615519e+00    
      42      -1.631123e+00    
      43      -1.636323e+00    
      44      -1.654987e+00    
      45      -1.732971e+00    
      46      -1.751441e+00    
      47      -1.757058e+00    
      48      -1.779054e+00    
      49      -1.860316e+00    
      50      -1.882403e+00    
      51      -1.888001e+00    
      52      -1.914210e+00    
      53      -1.998510e+00    
      54      -2.025205e+00    
      55      -2.030319e+00    
      56      -2.061937e+00    
      57      -2.148814e+00    
      58      2.165722e+00     
      59      2.170184e+00     
      60      -2.181392e+00    
      61      -2.185284e+00    
      62      -2.223622e+00    
      63      2.300223e+00     
      64      -2.312620e+00    
      65      2.315961e+00     
      66      -2.352390e+00    
      67      -2.354576e+00    
      68      -2.400925e+00    
      69      -2.491516e+00    
      70      2.501975e+00     
      71      2.527835e+00     
      72      -2.538610e+00    
      73      -2.541265e+00    
      74      -2.595933e+00    
      75      -2.687372e+00    
      76      2.738637e+00     
      77      -2.741461e+00    
      78      -2.747940e+00    
      79      2.776009e+00     
      80      -2.811246e+00    
      81      2.879973e+00     
      82      2.884777e+00     
      83      -2.902317e+00    
      84      -2.964293e+00    
      85      -2.976603e+00    
      86      3.001794e+00     
      87      3.036857e+00     
      88      3.047880e+00     
      89      -3.049727e+00    
      90      3.052211e+00     
      91      -3.138851e+00    
      92      -3.209758e+00    
      93      -3.230367e+00    
      94      3.267319e+00     
      95      3.292318e+00     
      96      3.295129e+00     
      97      -3.314209e+00    
      98      3.348159e+00     
      99      -3.399779e+00    
      100     -3.481072e+00    
      101     -3.512621e+00    
      102     3.544944e+00     
      103     3.581640e+00     
      104     3.609509e+00     
      105     -3.612887e+00    
      106     -3.696493e+00    
      107     -3.869011e+00    
      108     4.309269e+00     
 
     NUMBER OF EIGENVALUES CONVERGED UPTO THIS ITERATION = 99
 
     ITERATION 65
      1       -8.272743e-01    
      2       -8.277009e-01    
      3       -8.543997e-01    
      4       -8.559204e-01    
      5       -8.975520e-01    
      6       -9.007040e-01    
      7       -9.321119e-01    
      8       -9.326800e-01    
      9       -9.524565e-01    
      10      -9.573108e-01    
      11      -9.639031e-01    
      12      -9.659102e-01    
      13      -1.013719e+00    
      14      -1.014901e+00    
      15      -1.018300e+00    
      16      -1.020910e+00    
      17      -1.077954e+00    
      18      -1.082447e+00    
      19      -1.084168e+00    
      20      -1.090704e+00    
      21      -1.149563e+00    
      22      -1.156596e+00    
      23      -1.157765e+00    
      24      -1.166877e+00    
      25      -1.228169e+00    
      26      -1.237026e+00    
      27      -1.238565e+00    
      28      -1.249484e+00    
      29      -1.313791e+00    
      30      -1.324047e+00    
      31      -1.326541e+00    
      32      -1.338969e+00    
      33      -1.406610e+00    
      34      -1.418311e+00    
      35      -1.421817e+00    
      36      -1.435871e+00    
      37      -1.506934e+00    
      38      -1.520380e+00    
      39      -1.524851e+00    
      40      -1.540931e+00    
      41      -1.615519e+00    
      42      -1.631123e+00    
      43      -1.636323e+00    
      44      -1.654987e+00    
      45      -1.732971e+00    
      46      -1.751441e+00    
      47      -1.757058e+00    
      48      -1.779054e+00    
      49      -1.860316e+00    
      50      -1.882403e+00    
      51      -1.888001e+00    
      52      -1.914210e+00    
      53      -1.998510e+00    
      54      -2.025205e+00    
      55      -2.030319e+00    
      56      -2.061937e+00    
      57      -2.148814e+00    
      58      2.165722e+00     
      59      2.170184e+00     
      60      -2.181392e+00    
      61      -2.185284e+00    
      62      -2.223622e+00    
      63      2.300223e+00     
      64      -2.312620e+00    
      65      2.315961e+00     
      66      -2.352390e+00    
      67      -2.354576e+00    
      68      -2.400925e+00    
      69      -2.491516e+00    
      70      2.501975e+00     
      71      2.527835e+00     
      72      -2.538610e+00    
      73      -2.541265e+00    
      74      -2.595933e+00    
      75      -2.687372e+00    
      76      2.738637e+00     
      77      -2.741461e+00    
      78      -2.747940e+00    
      79      2.776009e+00     
      80      -2.811246e+00    
      81      2.879973e+00     
      82      2.884777e+00     
      83      -2.902317e+00    
      84      -2.964293e+00    
      85      -2.976603e+00    
      86      3.001794e+00     
      87      3.036857e+00     
      88      3.047880e+00     
      89      -3.049727e+00    
      90      3.052211e+00     
      91      -3.138851e+00    
      92      -3.209758e+00    
      93      -3.230367e+00    
      94      3.267319e+00     
      95      3.292318e+00     
      96      3.295129e+00     
      97      -3.314209e+00    
      98      3.348159e+00     
      99      -3.399779e+00    
      100     -3.481068e+00    
      101     -3.512592e+00    
      102     3.544782e+00     
      103     3.581577e+00     
      104     3.609439e+00     
      105     -3.612353e+00    
      106     -3.695890e+00    
      107     -3.865899e+00    
      108     4.260656e+00     
 
     NUMBER OF EIGENVALUES CONVERGED UPTO THIS ITERATION = 100
1

   Abaqus 2022                                  Date 08-apr-2025   Time 21:34:59
   For use by NORGES TEKNISK NATURVITENSKAPELIGE UNIVERSITET under license from Dassault Systemes or its subsidiary.

                                                                                 
                                                                                 
 STEP    2     INCREMENT     1     STEP TIME    0.00    


                        S T E P       2     S T A T I C   A N A L Y S I S


                                                                                          

     AUTOMATIC TIME CONTROL WITH -
          A SUGGESTED INITIAL TIME INCREMENT OF                 1.00    
          AND A TOTAL TIME PERIOD OF                            1.00    
          THE MINIMUM TIME INCREMENT ALLOWED IS                1.000E-05
          THE MAXIMUM TIME INCREMENT ALLOWED IS                 1.00    

     LINEAR EQUATION SOLVER TYPE         DIRECT SPARSE

 CONVERGENCE TOLERANCE PARAMETERS FOR FORCE    
     CRITERION FOR RESIDUAL FORCE     FOR A NONLINEAR PROBLEM          5.000E-03
     CRITERION FOR DISP.    CORRECTION IN A NONLINEAR PROBLEM          1.000E-02
     INIT. VALUE OF TIME AVG. FORCE     IS TIME AVG. FORCE     IN PREVIOUS STEP
     AVERAGE FORCE     IS TIME AVERAGE FORCE    
     ALTERNATE CRIT. FOR RESIDUAL FORCE     FOR A NONLINEAR PROBLEM    2.000E-02
     CRITERION FOR ZERO FORCE     RELATIVE TO TIME AVRG. FORCE         1.000E-05
     CRITERION FOR RESIDUAL FORCE     WHEN THERE IS ZERO FLUX          1.000E-05
     CRITERION FOR DISP.    CORRECTION WHEN THERE IS ZERO FLUX         1.000E-03
     CRITERION FOR RESIDUAL FORCE     FOR A LINEAR INCREMENT           1.000E-08
     FIELD CONVERSION RATIO                                             1.00    
     CRITERION FOR ZERO FORCE     REL. TO TIME AVRG. MAX. FORCE        1.000E-05
     CRITERION FOR ZERO DISP.    RELATIVE TO CHARACTERISTIC LENGTH     1.000E-08

 CONVERGENCE TOLERANCE PARAMETERS FOR MOMENT   
     CRITERION FOR RESIDUAL MOMENT    FOR A NONLINEAR PROBLEM          5.000E-03
     CRITERION FOR ROTATION CORRECTION IN A NONLINEAR PROBLEM          1.000E-02
     INIT. VALUE OF TIME AVG. MOMENT    IS TIME AVG. MOMENT    IN PREVIOUS STEP
     AVERAGE MOMENT    IS TIME AVERAGE MOMENT   
     ALTERNATE CRIT. FOR RESIDUAL MOMENT    FOR A NONLINEAR PROBLEM    2.000E-02
     CRITERION FOR ZERO MOMENT    RELATIVE TO TIME AVRG. MOMENT        1.000E-05
     CRITERION FOR RESIDUAL MOMENT    WHEN THERE IS ZERO FLUX          1.000E-05
     CRITERION FOR ROTATION CORRECTION WHEN THERE IS ZERO FLUX         1.000E-03
     CRITERION FOR RESIDUAL MOMENT    FOR A LINEAR INCREMENT           1.000E-08
     FIELD CONVERSION RATIO                                             1.00    
     CRITERION FOR ZERO MOMENT    REL. TO TIME AVRG. MAX. MOMENT       1.000E-05

     VOLUMETRIC STRAIN COMPATIBILITY TOLERANCE FOR HYBRID SOLIDS       1.000E-05
     AXIAL STRAIN COMPATIBILITY TOLERANCE FOR HYBRID BEAMS             1.000E-05
     TRANS. SHEAR STRAIN COMPATIBILITY TOLERANCE FOR HYBRID BEAMS      1.000E-05
     SOFT CONTACT CONSTRAINT COMPATIBILITY TOLERANCE FOR P>P0          5.000E-03
     SOFT CONTACT CONSTRAINT COMPATIBILITY TOLERANCE FOR P=0.0         0.100    
     CONTACT FORCE ERROR TOLERANCE FOR CONVERT SDI=YES                 1.00    
     DISPLACEMENT COMPATIBILITY TOLERANCE FOR DCOUP ELEMENTS           1.000E-05
     ROTATION COMPATIBILITY TOLERANCE FOR DCOUP ELEMENTS               1.000E-05

 EQUILIBRIUM WILL BE CHECKED FOR SEVERE DISCONTINUITY ITERATIONS

 TIME INCREMENTATION CONTROL PARAMETERS:
     FIRST EQUILIBRIUM ITERATION FOR CONSECUTIVE DIVERGENCE CHECK              4
     EQUILIBRIUM ITERATION AT WHICH LOG. CONVERGENCE RATE CHECK BEGINS         8
     EQUILIBRIUM ITERATION AFTER WHICH ALTERNATE RESIDUAL IS USED              9
     MAXIMUM EQUILIBRIUM ITERATIONS ALLOWED                                   16
     EQUILIBRIUM ITERATION COUNT FOR CUT-BACK IN NEXT INCREMENT               10
     MAXIMUM EQUILIB. ITERS IN TWO INCREMENTS FOR TIME INCREMENT INCREASE      4
     MAXIMUM ITERATIONS FOR SEVERE DISCONTINUITIES                            50
     MAXIMUM ATTEMPTS ALLOWED IN AN INCREMENT                                  5
     MAXIMUM DISCON. ITERS IN TWO INCREMENTS FOR TIME INCREMENT INCREASE      50
     MAXIMUM CONTACT AUGMENTATIONS FOR *SURFACE BEHAVIOR,AUGMENTED LAGRANGE   50
     CUT-BACK FACTOR AFTER DIVERGENCE                                 0.2500    
     CUT-BACK FACTOR FOR TOO SLOW CONVERGENCE                         0.5000    
     CUT-BACK FACTOR AFTER TOO MANY EQUILIBRIUM ITERATIONS            0.7500    
     CUT-BACK FACTOR AFTER TOO MANY SEVERE DISCONTINUITY ITERATIONS   0.2500    
     CUT-BACK FACTOR AFTER PROBLEMS IN ELEMENT ASSEMBLY               0.2500    
     INCREASE FACTOR AFTER TWO INCREMENTS THAT CONVERGE QUICKLY        1.500    
     MAX. TIME INCREMENT INCREASE FACTOR ALLOWED                       1.500    
     MAX. TIME INCREMENT INCREASE FACTOR ALLOWED (DYNAMICS)            1.250    
     MAX. TIME INCREMENT INCREASE FACTOR ALLOWED (DIFFUSION)           2.000    
     MINIMUM TIME INCREMENT RATIO FOR EXTRAPOLATION TO OCCUR          0.1000    
     MAX. RATIO OF TIME INCREMENT TO STABILITY LIMIT                   1.000    
     FRACTION OF STABILITY LIMIT FOR NEW TIME INCREMENT               0.9500    
     TIME INCREMENT INCREASE FACTOR BEFORE A TIME POINT                1.000    
     GLOBAL STABILIZATION CONTROL IS NOT USED

          PRINT OF INCREMENT NUMBER, TIME, ETC., EVERY    1  INCREMENTS

     THE MAXIMUM NUMBER OF INCREMENTS IN THIS STEP IS                     100

     LINEAR EXTRAPOLATION WILL BE USED

     CHARACTERISTIC ELEMENT LENGTH      18.5    

     DETAILS REGARDING ACTUAL SOLUTION WAVEFRONT REQUESTED

     DETAILED OUTPUT OF DIAGNOSTICS TO DATABASE REQUESTED

     PRINT OF INCREMENT NUMBER, TIME, ETC., TO THE MESSAGE FILE EVERY     1  INCREMENTS

     COLLECTING MODEL CONSTRAINT INFORMATION FOR OVERCONSTRAINT CHECKS

     COLLECTING STEP CONSTRAINT INFORMATION FOR OVERCONSTRAINT CHECKS


  INCREMENT     1 STARTS. ATTEMPT NUMBER  1, TIME INCREMENT   1.00    
 
	SYMMETRIC DIRECT SPARSE SOLVER RUNNING ON
 	1 HOST:        1 MPI RANK  x 1 THREAD
 	NUMBER OF EQUATIONS:     17064
 	NUMBER OF RHS:           1
 	NUMBER OF FLOPS:         6.083e+08

     CHECK POINT   START OF SOLVER    

     CHECK POINT  END OF SOLVER       

       ELAPSED USER TIME (SEC)      =  0.10000    
       ELAPSED SYSTEM TIME (SEC)    =   0.0000    
       ELAPSED TOTAL CPU TIME (SEC) =  0.10000    
       ELAPSED WALLCLOCK TIME (SEC) =          0

               CONVERGENCE CHECKS FOR EQUILIBRIUM ITERATION     1


 AVERAGE FORCE                       23.9       TIME AVG. FORCE        23.9    
 LARGEST RESIDUAL FORCE            -2.324E-09   AT NODE          2   DOF  3
   INSTANCE:                                                                                 
 LARGEST INCREMENT OF DISP.         -45.7       AT NODE       2898   DOF  3
   INSTANCE: BOX                                                                             
 LARGEST CORRECTION TO DISP.        -45.7       AT NODE       2898   DOF  3
   INSTANCE: BOX                                                                             
          THE FORCE     EQUILIBRIUM RESPONSE WAS LINEAR IN THIS INCREMENT

 AVERAGE MOMENT                      1.97       TIME AVG. MOMENT       1.97    
 LARGEST RESIDUAL MOMENT           -4.654E-09   AT NODE          1   DOF  5
   INSTANCE:                                                                                 
 LARGEST INCREMENT OF ROTATION      3.998E-02   AT NODE        279   DOF  5
   INSTANCE: BOX                                                                             
 LARGEST CORRECTION TO ROTATION     3.998E-02   AT NODE        279   DOF  5
   INSTANCE: BOX                                                                             
          THE MOMENT    EQUILIBRIUM RESPONSE WAS LINEAR IN THIS INCREMENT

 ITERATION SUMMARY FOR THE INCREMENT:   1 TOTAL ITERATIONS, OF WHICH
   0 ARE SEVERE DISCONTINUITY ITERATIONS AND  1 ARE EQUILIBRIUM ITERATIONS.

 TIME INCREMENT COMPLETED   1.00    ,  FRACTION OF STEP COMPLETED   1.00    
 STEP TIME COMPLETED        1.00    ,  TOTAL TIME COMPLETED         1.00    


          THE ANALYSIS HAS BEEN COMPLETED



     ANALYSIS SUMMARY:
     TOTAL OF          2  INCREMENTS
                       0  CUTBACKS IN AUTOMATIC INCREMENTATION
                       2  ITERATIONS INCLUDING CONTACT ITERATIONS IF PRESENT
                       2  PASSES THROUGH THE EQUATION SOLVER OF WHICH 
                       2  INVOLVE MATRIX DECOMPOSITION, INCLUDING
                       0  DECOMPOSITION(S) OF THE MASS MATRIX
                       1  REORDERING OF EQUATIONS TO MINIMIZE WAVEFRONT
                       0  ADDITIONAL RESIDUAL EVALUATIONS FOR LINE SEARCHES
                       0  ADDITIONAL OPERATOR EVALUATIONS FOR LINE SEARCHES
                       2  WARNING MESSAGES DURING USER INPUT PROCESSING
                       0  WARNING MESSAGES DURING ANALYSIS
                       0  ANALYSIS WARNINGS ARE NUMERICAL PROBLEM MESSAGES
                       0  ANALYSIS WARNINGS ARE NEGATIVE EIGENVALUE MESSAGES
                       0  ERROR MESSAGES



     JOB TIME SUMMARY
       USER TIME (SEC)      =   37.200    
       SYSTEM TIME (SEC)    =   16.300    
       TOTAL CPU TIME (SEC) =   53.500    
       WALLCLOCK TIME (SEC) =         54
