*Heading
** Job name: Job-3 Model name: BP-2
** Generated by: Abaqus/CAE 2022
*Preprint, echo=NO, model=NO, history=NO, contact=NO
**
** PARTS
**
*Part, name=Box
*Node
      1,       -59.75,       -37.25,   1159.90002
      2,  -20.0499992,       -37.25,   1159.90002
      3,  -20.0499992,       -37.25,   1240.09998
      4,       -59.75,       -37.25,   1240.09998
      5,       -89.75,        37.25,   1159.90002
      6,       -89.75,        37.25,           0.
      7,       -59.75,       -37.25,           0.
      8,       -99.75,        37.25,   1159.90002
      9,       -89.75,        37.25,   1240.09998
     10,       -99.75,        37.25,   1240.09998
     11,           0.,       -37.25,   1159.90002
     12,           0.,       -37.25,   1240.09998
     13,  -20.0499992,        37.25,   1159.90002
     14,  -20.0499992,        37.25,   1240.09998
     15,   20.0499992,       -37.25,   1159.90002
     16,   20.0499992,       -37.25,   1240.09998
     17,           0.,        37.25,   1159.90002
     18,           0.,        37.25,           0.
     19,           0.,       -37.25,           0.
     20,           0.,        37.25,   1240.09998
** ... 2880 like lines cut
*Element, type=S4R
1,    1,   49, 1269,   56
2,   49,    2,   50, 1269
3,   56, 1269, 1270,   55
4, 1269,   50,   51, 1270
5,   55, 1270, 1271,   54
6, 1270,   51,   52, 1271
7,   54, 1271,   53,    4
8, 1271,   52,    3,   53
  9,    1,   57, 1272,  188
 10,   57,   58, 1273, 1272
 11,   58,   59, 1274, 1273
 12,   59,    5,   60, 1274
 13,  188, 1272, 1275,  187
 14, 1272, 1273, 1276, 1275
 15, 1273, 1274, 1277, 1276
 16, 1274,   60,   61, 1277
 17,  187, 1275, 1278,  186
 18, 1275, 1276, 1279, 1278
 19, 1276, 1277, 1280, 1279
 20, 1277,   61,   62, 1280
** ... 2950 like lines cut
*Nset, nset=Set-2
   27,   29,   41,   47,  431,  432,  433,  434,  435,  436,  437,  438,  439,  440,  441,  442
  443,  444,  445,  446,  447,  448,  449,  450,  451,  452,  453,  454,  455,  456,  457,  458
  459,  460,  461,  462,  463,  464,  465,  466,  467,  468,  469,  470,  471,  472,  473,  474
  475,  476,  477,  478,  479,  480,  481,  482,  483,  484,  485,  486,  487,  488,  489,  490
  491,  492,  493,  841,  842,  843, 1163, 1164, 1165, 1166, 1167, 1168, 1169, 1170, 1171, 1172
 1173, 1174, 1175, 1176, 1177, 1178, 1179, 1180, 1181, 1182, 1183, 1184, 1185, 1186, 1187, 1188
 1189, 1190, 1191, 1192
*Elset, elset=Set-2
  597,  598,  599,  600,  601,  602,  603,  604,  605,  606,  607,  608,  609,  610,  611,  612
  613,  614,  615,  616,  617,  618,  619,  620,  621,  622,  623,  624,  625,  626,  627,  628
  629,  630,  631,  632,  633,  634,  635,  636,  637,  638,  639,  640,  641,  642,  643,  644
  645,  646,  647,  648,  649,  650,  651,  652,  653,  654,  655,  656,  657,  658,  659,  660
 1344, 1345, 1346, 1347, 1988, 1989, 1990, 1991, 1992, 1993, 1994, 1995, 1996, 1997, 1998, 1999
 2000, 2001, 2002, 2003, 2004, 2005, 2006, 2007, 2008, 2009, 2010, 2011, 2012, 2013, 2014, 2015
 2016, 2017, 2018
*Nset, nset=_PickedSet25, internal
   1,   4,   7,  31,  54,  55,  56, 126, 127, 128, 129, 130, 131, 132, 133, 134
 135, 136, 137, 138, 139, 140, 141, 142, 143, 144, 145, 146, 147, 148, 149, 150
 151, 152, 153, 154, 155, 156, 157, 158, 159, 160, 161, 162, 163, 164, 165, 166
 167, 168, 169, 170, 171, 172, 173, 174, 175, 176, 177, 178, 179, 180, 181, 182
 183, 184, 185, 186, 187, 188, 528, 529, 530, 531, 532, 533, 534, 535, 536, 537
 538, 539, 540, 541, 542, 543, 544, 545, 546, 547, 548, 549, 550, 551, 552, 553
 554, 555, 556, 557
*Elset, elset=_PickedSet25, internal
    1,    3,    5,    7,    9,   13,   17,   21,   25,   29,   33,   37,   41,   45,   49,   53
   57,   61,   65,   69,   73,   77,   81,   85,   89,   93,   97,  101,  105,  109,  113,  117
  121,  125,  129,  133,  137,  141,  145,  149,  153,  157,  161,  165,  169,  173,  177,  181
  185,  189,  193,  197,  201,  205,  209,  213,  217,  221,  225,  229,  233,  237,  241,  245
  249,  253,  257,  261,  664,  668,  672,  676,  677,  679,  681,  683,  685,  687,  689,  691
  693,  695,  697,  699,  701,  703,  705,  707,  709,  711,  713,  715,  717,  719,  721,  723
  725,  727,  729,  731,  733,  735,  737, 1605, 1607, 1609, 1611, 1613, 1615, 1617, 1619, 1621
 1623, 1625, 1627, 1629, 1631, 1633, 1635, 1637, 1639, 1641, 1643, 1645, 1647, 1649, 1651, 1653
 1655, 1657, 1659, 1661, 1663, 1665, 1667, 1669, 1671, 1673, 1675, 1677, 1679, 1681, 1683, 1685
 1687, 1689, 1691, 1693, 1695, 1697, 1699, 1701, 1703, 1705, 1707, 1709, 1711, 1713, 1715, 1717
 1719, 1721, 1723, 1725, 1727, 1729, 1731, 2726, 2730, 2734, 2738, 2742, 2746, 2750, 2754, 2758
 2762, 2766, 2770, 2774, 2778, 2782, 2786, 2790, 2794, 2798, 2802, 2806, 2810, 2814, 2818, 2822
 2826, 2830, 2834, 2838, 2842, 2846
*Nset, nset=_PickedSet31, internal
    8,   10,   33,   46,  192,  193,  194,  588,  589,  590,  591,  592,  593,  594,  595,  596
  597,  598,  599,  600,  601,  602,  603,  604,  605,  606,  607,  608,  609,  610,  611,  612
  613,  614,  615,  616,  617, 1100, 1101, 1102, 1103, 1104, 1105, 1106, 1107, 1108, 1109, 1110
 1111, 1112, 1113, 1114, 1115, 1116, 1117, 1118, 1119, 1120, 1121, 1122, 1123, 1124, 1125, 1126
 1127, 1128, 1129, 1130, 1131, 1132, 1133, 1134, 1135, 1136, 1137, 1138, 1139, 1140, 1141, 1142
 1143, 1144, 1145, 1146, 1147, 1148, 1149, 1150, 1151, 1152, 1153, 1154, 1155, 1156, 1157, 1158
 1159, 1160, 1161, 1162
*Elset, elset=_PickedSet31, internal
  265,  266,  267,  268,  739,  740,  741,  742,  743,  744,  745,  746,  747,  748,  749,  750
  751,  752,  753,  754,  755,  756,  757,  758,  759,  760,  761,  762,  763,  764,  765,  766
  767,  768,  769, 1860, 1861, 1862, 1863, 1864, 1865, 1866, 1867, 1868, 1869, 1870, 1871, 1872
 1873, 1874, 1875, 1876, 1877, 1878, 1879, 1880, 1881, 1882, 1883, 1884, 1885, 1886, 1887, 1888
 1889, 1890, 1891, 1892, 1893, 1894, 1895, 1896, 1897, 1898, 1899, 1900, 1901, 1902, 1903, 1904
 1905, 1906, 1907, 1908, 1909, 1910, 1911, 1912, 1913, 1914, 1915, 1916, 1917, 1918, 1919, 1920
 1921, 1922, 1923
*Nset, nset=_PickedSet37, internal
   27,   29,   41,   47,  431,  432,  433,  434,  435,  436,  437,  438,  439,  440,  441,  442
  443,  444,  445,  446,  447,  448,  449,  450,  451,  452,  453,  454,  455,  456,  457,  458
  459,  460,  461,  462,  463,  464,  465,  466,  467,  468,  469,  470,  471,  472,  473,  474
  475,  476,  477,  478,  479,  480,  481,  482,  483,  484,  485,  486,  487,  488,  489,  490
  491,  492,  493,  841,  842,  843, 1163, 1164, 1165, 1166, 1167, 1168, 1169, 1170, 1171, 1172
 1173, 1174, 1175, 1176, 1177, 1178, 1179, 1180, 1181, 1182, 1183, 1184, 1185, 1186, 1187, 1188
 1189, 1190, 1191, 1192
*Elset, elset=_PickedSet37, internal
  597,  598,  599,  600,  601,  602,  603,  604,  605,  606,  607,  608,  609,  610,  611,  612
  613,  614,  615,  616,  617,  618,  619,  620,  621,  622,  623,  624,  625,  626,  627,  628
  629,  630,  631,  632,  633,  634,  635,  636,  637,  638,  639,  640,  641,  642,  643,  644
  645,  646,  647,  648,  649,  650,  651,  652,  653,  654,  655,  656,  657,  658,  659,  660
 1344, 1345, 1346, 1347, 1988, 1989, 1990, 1991, 1992, 1993, 1994, 1995, 1996, 1997, 1998, 1999
 2000, 2001, 2002, 2003, 2004, 2005, 2006, 2007, 2008, 2009, 2010, 2011, 2012, 2013, 2014, 2015
 2016, 2017, 2018
*Nset, nset=_PickedSet43, internal
   15,   16,   36,   45,  207,  208,  209,  684,  685,  686,  687,  688,  689,  690,  691,  692
  693,  694,  695,  696,  697,  698,  699,  700,  701,  702,  703,  704,  705,  706,  707,  708
  709,  710,  711,  712,  713, 1037, 1038, 1039, 1040, 1041, 1042, 1043, 1044, 1045, 1046, 1047
 1048, 1049, 1050, 1051, 1052, 1053, 1054, 1055, 1056, 1057, 1058, 1059, 1060, 1061, 1062, 1063
 1064, 1065, 1066, 1067, 1068, 1069, 1070, 1071, 1072, 1073, 1074, 1075, 1076, 1077, 1078, 1079
 1080, 1081, 1082, 1083, 1084, 1085, 1086, 1087, 1088, 1089, 1090, 1091, 1092, 1093, 1094, 1095
 1096, 1097, 1098, 1099
*Elset, elset=_PickedSet43, internal
  289,  290,  291,  292,  553,  555,  557,  559,  941,  942,  943,  944,  945,  946,  947,  948
  949,  950,  951,  952,  953,  954,  955,  956,  957,  958,  959,  960,  961,  962,  963,  964
  965,  966,  967,  968,  969,  970,  971, 1003, 1005, 1007, 1009, 1011, 1013, 1015, 1017, 1019
 1021, 1023, 1025, 1027, 1029, 1031, 1033, 1035, 1037, 1039, 1041, 1043, 1045, 1047, 1049, 1051
 1053, 1055, 1057, 1059, 1061, 1063, 1796, 1797, 1798, 1799, 1800, 1801, 1802, 1803, 1804, 1805
 1806, 1807, 1808, 1809, 1810, 1811, 1812, 1813, 1814, 1815, 1816, 1817, 1818, 1819, 1820, 1821
 1822, 1823, 1824, 1825, 1826, 1827, 1828, 1829, 1830, 1831, 1832, 1833, 1834, 1835, 1836, 1837
 1838, 1839, 1840, 1841, 1842, 1843, 1844, 1845, 1846, 1847, 1848, 1849, 1850, 1851, 1852, 1853
 1854, 1855, 1856, 1857, 1858, 1859, 2596, 2598, 2600, 2602, 2604, 2606, 2608, 2610, 2612, 2614
 2616, 2618, 2620, 2622, 2624, 2626, 2628, 2630, 2632, 2634, 2636, 2638, 2640, 2642, 2644, 2646
 2648, 2650, 2652, 2654, 2656, 2658, 2660, 2662, 2664, 2666, 2668, 2670, 2672, 2674, 2676, 2678
 2680, 2682, 2684, 2686, 2688, 2690, 2692, 2694, 2696, 2698, 2700, 2702, 2704, 2706, 2708, 2710
 2712, 2714, 2716, 2718, 2720, 2722
*Nset, nset=_PickedSet64, internal
   5,   6,   9,  32,  60,  61,  62,  63,  64,  65,  66,  67,  68,  69,  70,  71
  72,  73,  74,  75,  76,  77,  78,  79,  80,  81,  82,  83,  84,  85,  86,  87
  88,  89,  90,  91,  92,  93,  94,  95,  96,  97,  98,  99, 100, 101, 102, 103
 104, 105, 106, 107, 108, 109, 110, 111, 112, 113, 114, 115, 116, 117, 118, 119
 120, 121, 122, 189, 190, 191, 558, 559, 560, 561, 562, 563, 564, 565, 566, 567
 568, 569, 570, 571, 572, 573, 574, 575, 576, 577, 578, 579, 580, 581, 582, 583
 584, 585, 586, 587
*Elset, elset=_PickedSet64, internal
   12,   16,   20,   24,   28,   32,   36,   40,   44,   48,   52,   56,   60,   64,   68,   72
   76,   80,   84,   88,   92,   96,  100,  104,  108,  112,  116,  120,  124,  128,  132,  136
  140,  144,  148,  152,  156,  160,  164,  168,  172,  176,  180,  184,  188,  192,  196,  200
  204,  208,  212,  216,  220,  224,  228,  232,  236,  240,  244,  248,  252,  256,  260,  264
  265,  266,  267,  268,  273,  277,  281,  285,  661,  665,  669,  673,  739,  740,  741,  742
  743,  744,  745,  746,  747,  748,  749,  750,  751,  752,  753,  754,  755,  756,  757,  758
  759,  760,  761,  762,  763,  764,  765,  766,  767,  768,  769,  801,  805,  809,  813,  817
  821,  825,  829,  833,  837,  841,  845,  849,  853,  857,  861,  865,  869,  873,  877,  881
  885,  889,  893,  897,  901,  905,  909,  913,  917,  921, 1351, 1355, 1359, 1363, 1367, 1371
 1375, 1379, 1383, 1387, 1391, 1395, 1399, 1403, 1407, 1411, 1415, 1419, 1423, 1427, 1431, 1435
 1439, 1443, 1447, 1451, 1455, 1459, 1463, 1467, 1471, 1475, 1479, 1483, 1487, 1491, 1495, 1499
 1503, 1507, 1511, 1515, 1519, 1523, 1527, 1531, 1535, 1539, 1543, 1547, 1551, 1555, 1559, 1563
 1567, 1571, 1575, 1579, 1583, 1587, 1591, 1595, 1599, 1603, 1860, 1861, 1862, 1863, 1864, 1865
 1866, 1867, 1868, 1869, 1870, 1871, 1872, 1873, 1874, 1875, 1876, 1877, 1878, 1879, 1880, 1881
 1882, 1883, 1884, 1885, 1886, 1887, 1888, 1889, 1890, 1891, 1892, 1893, 1894, 1895, 1896, 1897
 1898, 1899, 1900, 1901, 1902, 1903, 1904, 1905, 1906, 1907, 1908, 1909, 1910, 1911, 1912, 1913
 1914, 1915, 1916, 1917, 1918, 1919, 1920, 1921, 1922, 1923, 2723, 2727, 2731, 2735, 2739, 2743
 2747, 2751, 2755, 2759, 2763, 2767, 2771, 2775, 2779, 2783, 2787, 2791, 2795, 2799, 2803, 2807
 2811, 2815, 2819, 2823, 2827, 2831, 2835, 2839, 2843
*Elset, elset=_top_, internal
  265,  266,  267,  268,  273,  274,  275,  276,  277,  278,  279,  280,  281,  282,  283,  284
  285,  286,  287,  288,  549,  550,  551,  552,  561,  562,  563,  564,  581,  582,  583,  584
  585,  586,  587,  588,  589,  590,  591,  592,  593,  594,  595,  596,  597,  598,  599,  600
  601,  602,  603,  604,  605,  606,  607,  608,  609,  610,  611,  612,  613,  614,  615,  616
  617,  618,  619,  620,  621,  622,  623,  624,  625,  626,  627,  628,  629,  630,  631,  632
  633,  634,  635,  636,  637,  638,  639,  640,  641,  642,  643,  644,  645,  646,  647,  648
  649,  650,  651,  652,  653,  654,  655,  656,  657,  658,  659,  660,  739,  740,  741,  742
  743,  744,  745,  746,  747,  748,  749,  750,  751,  752,  753,  754,  755,  756,  757,  758
  759,  760,  761,  762,  763,  764,  765,  766,  767,  768,  769,  801,  802,  803,  804,  805
  806,  807,  808,  809,  810,  811,  812,  813,  814,  815,  816,  817,  818,  819,  820,  821
  822,  823,  824,  825,  826,  827,  828,  829,  830,  831,  832,  833,  834,  835,  836,  837
  838,  839,  840,  841,  842,  843,  844,  845,  846,  847,  848,  849,  850,  851,  852,  853
  854,  855,  856,  857,  858,  859,  860,  861,  862,  863,  864,  865,  866,  867,  868,  869
  870,  871,  872,  873,  874,  875,  876,  877,  878,  879,  880,  881,  882,  883,  884,  885
  886,  887,  888,  889,  890,  891,  892,  893,  894,  895,  896,  897,  898,  899,  900,  901
  902,  903,  904,  905,  906,  907,  908,  909,  910,  911,  912,  913,  914,  915,  916,  917
  918,  919,  920,  921,  922,  923,  924,  972,  973,  974,  975,  976,  977,  978,  979,  980
  981,  982,  983,  984,  985,  986,  987,  988,  989,  990,  991,  992,  993,  994,  995,  996
  997,  998,  999, 1000, 1001, 1002, 1065, 1066, 1067, 1068, 1069, 1070, 1071, 1072, 1073, 1074
 1075, 1076, 1077, 1078, 1079, 1080, 1081, 1082, 1083, 1084, 1085, 1086, 1087, 1088, 1089, 1090
** ... 55 like lines cut
*Surface, type=ELEMENT, name=top
_top_, 
*Elset, elset=_Surf-2_SPOS, internal
    1,    2,    3,    4,    5,    6,    7,    8,  269,  270,  271,  272,  289,  290,  291,  292
  553,  554,  555,  556,  557,  558,  559,  560,  677,  678,  679,  680,  681,  682,  683,  684
  685,  686,  687,  688,  689,  690,  691,  692,  693,  694,  695,  696,  697,  698,  699,  700
  701,  702,  703,  704,  705,  706,  707,  708,  709,  710,  711,  712,  713,  714,  715,  716
  717,  718,  719,  720,  721,  722,  723,  724,  725,  726,  727,  728,  729,  730,  731,  732
  733,  734,  735,  736,  737,  738,  770,  771,  772,  773,  774,  775,  776,  777,  778,  779
  780,  781,  782,  783,  784,  785,  786,  787,  788,  789,  790,  791,  792,  793,  794,  795
  796,  797,  798,  799,  800,  941,  942,  943,  944,  945,  946,  947,  948,  949,  950,  951
  952,  953,  954,  955,  956,  957,  958,  959,  960,  961,  962,  963,  964,  965,  966,  967
  968,  969,  970,  971, 1003, 1004, 1005, 1006, 1007, 1008, 1009, 1010, 1011, 1012, 1013, 1014
 1015, 1016, 1017, 1018, 1019, 1020, 1021, 1022, 1023, 1024, 1025, 1026, 1027, 1028, 1029, 1030
 1031, 1032, 1033, 1034, 1035, 1036, 1037, 1038, 1039, 1040, 1041, 1042, 1043, 1044, 1045, 1046
 1047, 1048, 1049, 1050, 1051, 1052, 1053, 1054, 1055, 1056, 1057, 1058, 1059, 1060, 1061, 1062
 1063, 1064, 1604, 1605, 1606, 1607, 1608, 1609, 1610, 1611, 1612, 1613, 1614, 1615, 1616, 1617
 1618, 1619, 1620, 1621, 1622, 1623, 1624, 1625, 1626, 1627, 1628, 1629, 1630, 1631, 1632, 1633
 1634, 1635, 1636, 1637, 1638, 1639, 1640, 1641, 1642, 1643, 1644, 1645, 1646, 1647, 1648, 1649
 1650, 1651, 1652, 1653, 1654, 1655, 1656, 1657, 1658, 1659, 1660, 1661, 1662, 1663, 1664, 1665
 1666, 1667, 1668, 1669, 1670, 1671, 1672, 1673, 1674, 1675, 1676, 1677, 1678, 1679, 1680, 1681
 1682, 1683, 1684, 1685, 1686, 1687, 1688, 1689, 1690, 1691, 1692, 1693, 1694, 1695, 1696, 1697
 1698, 1699, 1700, 1701, 1702, 1703, 1704, 1705, 1706, 1707, 1708, 1709, 1710, 1711, 1712, 1713
** ... 18 like lines cut
*Surface, type=ELEMENT, name=Surf-2
_Surf-2_SPOS, SPOS
*Elset, elset=__PickedSurf30_SPOS, internal
    9,   10,   11,   12,   13,   14,   15,   16,   17,   18,   19,   20,   21,   22,   23,   24
   25,   26,   27,   28,   29,   30,   31,   32,   33,   34,   35,   36,   37,   38,   39,   40
   41,   42,   43,   44,   45,   46,   47,   48,   49,   50,   51,   52,   53,   54,   55,   56
   57,   58,   59,   60,   61,   62,   63,   64,   65,   66,   67,   68,   69,   70,   71,   72
   73,   74,   75,   76,   77,   78,   79,   80,   81,   82,   83,   84,   85,   86,   87,   88
   89,   90,   91,   92,   93,   94,   95,   96,   97,   98,   99,  100,  101,  102,  103,  104
  105,  106,  107,  108,  109,  110,  111,  112,  113,  114,  115,  116,  117,  118,  119,  120
  121,  122,  123,  124,  125,  126,  127,  128,  129,  130,  131,  132,  133,  134,  135,  136
  137,  138,  139,  140,  141,  142,  143,  144,  145,  146,  147,  148,  149,  150,  151,  152
  153,  154,  155,  156,  157,  158,  159,  160,  161,  162,  163,  164,  165,  166,  167,  168
  169,  170,  171,  172,  173,  174,  175,  176,  177,  178,  179,  180,  181,  182,  183,  184
  185,  186,  187,  188,  189,  190,  191,  192,  193,  194,  195,  196,  197,  198,  199,  200
  201,  202,  203,  204,  205,  206,  207,  208,  209,  210,  211,  212,  213,  214,  215,  216
  217,  218,  219,  220,  221,  222,  223,  224,  225,  226,  227,  228,  229,  230,  231,  232
  233,  234,  235,  236,  237,  238,  239,  240,  241,  242,  243,  244,  245,  246,  247,  248
  249,  250,  251,  252,  253,  254,  255,  256,  257,  258,  259,  260,  261,  262,  263,  264
  661,  662,  663,  664,  665,  666,  667,  668,  669,  670,  671,  672,  673,  674,  675,  676
 2723, 2724, 2725, 2726, 2727, 2728, 2729, 2730, 2731, 2732, 2733, 2734, 2735, 2736, 2737, 2738
 2739, 2740, 2741, 2742, 2743, 2744, 2745, 2746, 2747, 2748, 2749, 2750, 2751, 2752, 2753, 2754
 2755, 2756, 2757, 2758, 2759, 2760, 2761, 2762, 2763, 2764, 2765, 2766, 2767, 2768, 2769, 2770
** ... 5 like lines cut
*Surface, type=ELEMENT, name=_PickedSurf30, internal
__PickedSurf30_SPOS, SPOS
*Elset, elset=__PickedSurf36_SPOS, internal
  565,  566,  567,  568,  569,  570,  571,  572,  573,  574,  575,  576,  577,  578,  579,  580
 1096, 1097, 1098, 1099, 1100, 1101, 1102, 1103, 1104, 1105, 1106, 1107, 1108, 1109, 1110, 1111
 1112, 1113, 1114, 1115, 1116, 1117, 1118, 1119, 1120, 1121, 1122, 1123, 1124, 1125, 1126, 1127
 1128, 1129, 1130, 1131, 1132, 1133, 1134, 1135, 1136, 1137, 1138, 1139, 1140, 1141, 1142, 1143
 1144, 1145, 1146, 1147, 1148, 1149, 1150, 1151, 1152, 1153, 1154, 1155, 1156, 1157, 1158, 1159
 1160, 1161, 1162, 1163, 1164, 1165, 1166, 1167, 1168, 1169, 1170, 1171, 1172, 1173, 1174, 1175
 1176, 1177, 1178, 1179, 1180, 1181, 1182, 1183, 1184, 1185, 1186, 1187, 1188, 1189, 1190, 1191
 1192, 1193, 1194, 1195, 1196, 1197, 1198, 1199, 1200, 1201, 1202, 1203, 1204, 1205, 1206, 1207
 1208, 1209, 1210, 1211, 1212, 1213, 1214, 1215, 1216, 1217, 1218, 1219, 2339, 2340, 2341, 2342
 2343, 2344, 2345, 2346, 2347, 2348, 2349, 2350, 2351, 2352, 2353, 2354, 2355, 2356, 2357, 2358
 2359, 2360, 2361, 2362, 2363, 2364, 2365, 2366, 2367, 2368, 2369, 2370, 2371, 2372, 2373, 2374
 2375, 2376, 2377, 2378, 2379, 2380, 2381, 2382, 2383, 2384, 2385, 2386, 2387, 2388, 2389, 2390
 2391, 2392, 2393, 2394, 2395, 2396, 2397, 2398, 2399, 2400, 2401, 2402, 2403, 2404, 2405, 2406
 2407, 2408, 2409, 2410, 2411, 2412, 2413, 2414, 2415, 2416, 2417, 2418, 2419, 2420, 2421, 2422
 2423, 2424, 2425, 2426, 2427, 2428, 2429, 2430, 2431, 2432, 2433, 2434, 2435, 2436, 2437, 2438
 2439, 2440, 2441, 2442, 2443, 2444, 2445, 2446, 2447, 2448, 2449, 2450, 2451, 2452, 2453, 2454
 2455, 2456, 2457, 2458, 2459, 2460, 2461, 2462, 2463, 2464, 2465, 2466, 2467, 2468, 2469, 2470
 2471, 2472, 2473, 2474, 2475, 2476, 2477, 2478, 2479, 2480, 2481, 2482, 2483, 2484, 2485, 2486
 2487, 2488, 2489, 2490, 2491, 2492, 2493, 2494, 2495, 2496, 2497, 2498, 2499, 2500, 2501, 2502
 2503, 2504, 2505, 2506, 2507, 2508, 2509, 2510, 2511, 2512, 2513, 2514, 2515, 2516, 2517, 2518
** ... 5 like lines cut
*Surface, type=ELEMENT, name=_PickedSurf36, internal
__PickedSurf36_SPOS, SPOS
*Elset, elset=__PickedSurf42_SPOS, internal
  293,  294,  295,  296,  297,  298,  299,  300,  301,  302,  303,  304,  305,  306,  307,  308
  309,  310,  311,  312,  313,  314,  315,  316,  317,  318,  319,  320,  321,  322,  323,  324
  325,  326,  327,  328,  329,  330,  331,  332,  333,  334,  335,  336,  337,  338,  339,  340
  341,  342,  343,  344,  345,  346,  347,  348,  349,  350,  351,  352,  353,  354,  355,  356
  357,  358,  359,  360,  361,  362,  363,  364,  365,  366,  367,  368,  369,  370,  371,  372
  373,  374,  375,  376,  377,  378,  379,  380,  381,  382,  383,  384,  385,  386,  387,  388
  389,  390,  391,  392,  393,  394,  395,  396,  397,  398,  399,  400,  401,  402,  403,  404
  405,  406,  407,  408,  409,  410,  411,  412,  413,  414,  415,  416,  417,  418,  419,  420
  421,  422,  423,  424,  425,  426,  427,  428,  429,  430,  431,  432,  433,  434,  435,  436
  437,  438,  439,  440,  441,  442,  443,  444,  445,  446,  447,  448,  449,  450,  451,  452
  453,  454,  455,  456,  457,  458,  459,  460,  461,  462,  463,  464,  465,  466,  467,  468
  469,  470,  471,  472,  473,  474,  475,  476,  477,  478,  479,  480,  481,  482,  483,  484
  485,  486,  487,  488,  489,  490,  491,  492,  493,  494,  495,  496,  497,  498,  499,  500
  501,  502,  503,  504,  505,  506,  507,  508,  509,  510,  511,  512,  513,  514,  515,  516
  517,  518,  519,  520,  521,  522,  523,  524,  525,  526,  527,  528,  529,  530,  531,  532
  533,  534,  535,  536,  537,  538,  539,  540,  541,  542,  543,  544,  545,  546,  547,  548
  925,  926,  927,  928,  929,  930,  931,  932,  933,  934,  935,  936,  937,  938,  939,  940
 2847, 2848, 2849, 2850, 2851, 2852, 2853, 2854, 2855, 2856, 2857, 2858, 2859, 2860, 2861, 2862
 2863, 2864, 2865, 2866, 2867, 2868, 2869, 2870, 2871, 2872, 2873, 2874, 2875, 2876, 2877, 2878
 2879, 2880, 2881, 2882, 2883, 2884, 2885, 2886, 2887, 2888, 2889, 2890, 2891, 2892, 2893, 2894
** ... 5 like lines cut
*Surface, type=ELEMENT, name=_PickedSurf42, internal
__PickedSurf42_SPOS, SPOS
*Elset, elset=__PickedSurf63_SPOS, internal
  265,  266,  267,  268,  273,  274,  275,  276,  277,  278,  279,  280,  281,  282,  283,  284
  285,  286,  287,  288,  549,  550,  551,  552,  561,  562,  563,  564,  581,  582,  583,  584
  585,  586,  587,  588,  589,  590,  591,  592,  593,  594,  595,  596,  597,  598,  599,  600
  601,  602,  603,  604,  605,  606,  607,  608,  609,  610,  611,  612,  613,  614,  615,  616
  617,  618,  619,  620,  621,  622,  623,  624,  625,  626,  627,  628,  629,  630,  631,  632
  633,  634,  635,  636,  637,  638,  639,  640,  641,  642,  643,  644,  645,  646,  647,  648
  649,  650,  651,  652,  653,  654,  655,  656,  657,  658,  659,  660,  739,  740,  741,  742
  743,  744,  745,  746,  747,  748,  749,  750,  751,  752,  753,  754,  755,  756,  757,  758
  759,  760,  761,  762,  763,  764,  765,  766,  767,  768,  769,  801,  802,  803,  804,  805
  806,  807,  808,  809,  810,  811,  812,  813,  814,  815,  816,  817,  818,  819,  820,  821
  822,  823,  824,  825,  826,  827,  828,  829,  830,  831,  832,  833,  834,  835,  836,  837
  838,  839,  840,  841,  842,  843,  844,  845,  846,  847,  848,  849,  850,  851,  852,  853
  854,  855,  856,  857,  858,  859,  860,  861,  862,  863,  864,  865,  866,  867,  868,  869
  870,  871,  872,  873,  874,  875,  876,  877,  878,  879,  880,  881,  882,  883,  884,  885
  886,  887,  888,  889,  890,  891,  892,  893,  894,  895,  896,  897,  898,  899,  900,  901
  902,  903,  904,  905,  906,  907,  908,  909,  910,  911,  912,  913,  914,  915,  916,  917
  918,  919,  920,  921,  922,  923,  924,  972,  973,  974,  975,  976,  977,  978,  979,  980
  981,  982,  983,  984,  985,  986,  987,  988,  989,  990,  991,  992,  993,  994,  995,  996
  997,  998,  999, 1000, 1001, 1002, 1065, 1066, 1067, 1068, 1069, 1070, 1071, 1072, 1073, 1074
 1075, 1076, 1077, 1078, 1079, 1080, 1081, 1082, 1083, 1084, 1085, 1086, 1087, 1088, 1089, 1090
** ... 55 like lines cut
*Surface, type=ELEMENT, name=_PickedSurf63, internal
__PickedSurf63_SPOS, SPOS
*Distribution, name=Ori-1-DiscOrient, location=ELEMENT, Table=Ori-1-DiscOrient_Table
** Description: Distribution generated from Discrete Orientation
,           1.,           0.,           0.,           0.,           1.,           0.
1,           0.,           0.,           1.,          -1.,           0.,           0.
2,           0.,           0.,           1.,          -1.,           0.,           0.
3,           0.,           0.,           1.,          -1.,           0.,           0.
4,           0.,           0.,           1.,          -1.,           0.,           0.
5,           0.,           0.,           1.,          -1.,           0.,           0.
6,           0.,           0.,           1.,          -1.,           0.,           0.
7,           0.,           0.,           1.,          -1.,           0.,           0.
8,           0.,           0.,           1.,          -1.,           0.,           0.
269,           0.,           0.,           1.,          -1.,           0.,           0.
270,           0.,           0.,           1.,          -1.,           0.,           0.
271,           0.,           0.,           1.,          -1.,           0.,           0.
272,           0.,           0.,           1.,          -1.,           0.,           0.
289,           0.,           0.,           1.,          -1.,           0.,           0.
290,           0.,           0.,           1.,          -1.,           0.,           0.
291,           0.,           0.,           1.,          -1.,           0.,           0.
292,           0.,           0.,           1.,          -1.,           0.,           0.
553,           0.,           0.,           1.,          -1.,           0.,           0.
554,           0.,           0.,           1.,          -1.,           0.,           0.
555,           0.,           0.,           1.,          -1.,           0.,           0.
556,           0.,           0.,           1.,          -1.,           0.,           0.
** ... 574 like lines cut
*Distribution, name=Ori-2-DiscOrient, location=ELEMENT, Table=Ori-2-DiscOrient_Table
** Description: Distribution generated from Discrete Orientation
,           1.,           0.,           0.,           0.,           1.,           0.
9,           0.,           0.,          -1., 0.373536437749863, -0.927615523338318,           0.
10,           0.,           0.,          -1., 0.373536437749863, -0.927615523338318,           0.
11,           0.,           0.,          -1., 0.373536437749863, -0.927615523338318,           0.
12,           0.,           0.,          -1., 0.373536437749863, -0.927615523338318,           0.
13,           0.,           0.,          -1., 0.373536437749863, -0.927615523338318,           0.
14,           0.,           0.,          -1., 0.373536437749863, -0.927615523338318,           0.
15,           0.,           0.,          -1., 0.373536437749863, -0.927615523338318,           0.
16,           0.,           0.,          -1., 0.373536437749863, -0.927615523338318,           0.
17,           0.,           0.,          -1., 0.373536437749863, -0.927615523338318,           0.
18,           0.,           0.,          -1., 0.373536437749863, -0.927615523338318,           0.
19,           0.,           0.,          -1., 0.373536437749863, -0.927615523338318,           0.
20,           0.,           0.,          -1., 0.373536437749863, -0.927615523338318,           0.
21,           0.,           0.,          -1., 0.373536437749863, -0.927615523338318,           0.
22,           0.,           0.,          -1., 0.373536437749863, -0.927615523338318,           0.
23,           0.,           0.,          -1., 0.373536437749863, -0.927615523338318,           0.
24,           0.,           0.,          -1., 0.373536437749863, -0.927615523338318,           0.
25,           0.,           0.,          -1., 0.373536437749863, -0.927615523338318,           0.
26,           0.,           0.,          -1., 0.373536437749863, -0.927615523338318,           0.
27,           0.,           0.,          -1., 0.373536437749863, -0.927615523338318,           0.
28,           0.,           0.,          -1., 0.373536437749863, -0.927615523338318,           0.
** ... 376 like lines cut
*Distribution, name=Ori-3-DiscOrient, location=ELEMENT, Table=Ori-3-DiscOrient_Table
** Description: Distribution generated from Discrete Orientation
,           1.,           0.,           0.,           0.,           1.,           0.
565,           0.,           0.,           1., -0.373536437749863, -0.927615523338318,           0.
566,           0.,           0.,           1., -0.373536437749863, -0.927615523338318,           0.
567,           0.,           0.,           1., -0.373536437749863, -0.927615523338318,           0.
568,           0.,           0.,           1., -0.373536437749863, -0.927615523338318,           0.
569,           0.,           0.,           1., -0.373536437749863, -0.927615523338318,           0.
570,           0.,           0.,           1., -0.373536437749863, -0.927615523338318,           0.
571,           0.,           0.,           1., -0.373536437749863, -0.927615523338318,           0.
572,           0.,           0.,           1., -0.373536437749863, -0.927615523338318,           0.
573,           0.,           0.,           1., -0.373536437749863, -0.927615523338318,           0.
574,           0.,           0.,           1., -0.373536437749863, -0.927615523338318,           0.
575,           0.,           0.,           1., -0.373536437749863, -0.927615523338318,           0.
576,           0.,           0.,           1., -0.373536437749863, -0.927615523338318,           0.
577,           0.,           0.,           1., -0.373536437749863, -0.927615523338318,           0.
578,           0.,           0.,           1., -0.373536437749863, -0.927615523338318,           0.
579,           0.,           0.,           1., -0.373536437749863, -0.927615523338318,           0.
580,           0.,           0.,           1., -0.373536437749863, -0.927615523338318,           0.
1096,           0.,           0.,           1., -0.373536437749863, -0.927615523338318,           0.
1097,           0.,           0.,           1., -0.373536437749863, -0.927615523338318,           0.
1098,           0.,           0.,           1., -0.373536437749863, -0.927615523338318,           0.
1099,           0.,           0.,           1., -0.373536437749863, -0.927615523338318,           0.
** ... 376 like lines cut
*Distribution, name=Ori-4-DiscOrient, location=ELEMENT, Table=Ori-4-DiscOrient_Table
** Description: Distribution generated from Discrete Orientation
,           1.,           0.,           0.,           0.,           1.,           0.
293,           0.,           0.,          -1.,           0.,          -1.,           0.
294,           0.,           0.,          -1.,           0.,          -1.,           0.
295,           0.,           0.,          -1.,           0.,          -1.,           0.
296,           0.,           0.,          -1.,           0.,          -1.,           0.
297,           0.,           0.,          -1.,           0.,          -1.,           0.
298,           0.,           0.,          -1.,           0.,          -1.,           0.
299,           0.,           0.,          -1.,           0.,          -1.,           0.
300,           0.,           0.,          -1.,           0.,          -1.,           0.
301,           0.,           0.,          -1.,           0.,          -1.,           0.
302,           0.,           0.,          -1.,           0.,          -1.,           0.
303,           0.,           0.,          -1.,           0.,          -1.,           0.
304,           0.,           0.,          -1.,           0.,          -1.,           0.
305,           0.,           0.,          -1.,           0.,          -1.,           0.
306,           0.,           0.,          -1.,           0.,          -1.,           0.
307,           0.,           0.,          -1.,           0.,          -1.,           0.
308,           0.,           0.,          -1.,           0.,          -1.,           0.
309,           0.,           0.,          -1.,           0.,          -1.,           0.
310,           0.,           0.,          -1.,           0.,          -1.,           0.
311,           0.,           0.,          -1.,           0.,          -1.,           0.
312,           0.,           0.,          -1.,           0.,          -1.,           0.
** ... 376 like lines cut
*Distribution, name=Ori-5-DiscOrient, location=ELEMENT, Table=Ori-5-DiscOrient_Table
** Description: Distribution generated from Discrete Orientation
,           1.,           0.,           0.,           0.,           1.,           0.
265,           0.,           0.,           1.,          -1.,           0.,           0.
266,           0.,           0.,           1.,          -1.,           0.,           0.
267,           0.,           0.,           1.,          -1.,           0.,           0.
268,           0.,           0.,           1.,          -1.,           0.,           0.
273,           0.,           0.,           1.,          -1.,           0.,           0.
274,           0.,           0.,           1.,          -1.,           0.,           0.
275,           0.,           0.,           1.,          -1.,           0.,           0.
276,           0.,           0.,           1.,          -1.,           0.,           0.
277,           0.,           0.,           1.,          -1.,           0.,           0.
278,           0.,           0.,           1.,          -1.,           0.,           0.
279,           0.,           0.,           1.,          -1.,           0.,           0.
280,           0.,           0.,           1.,          -1.,           0.,           0.
281,           0.,           0.,           1.,          -1.,           0.,           0.
282,           0.,           0.,           1.,          -1.,           0.,           0.
283,           0.,           0.,           1.,          -1.,           0.,           0.
284,           0.,           0.,           1.,          -1.,           0.,           0.
285,           0.,           0.,           1.,          -1.,           0.,           0.
286,           0.,           0.,           1.,          -1.,           0.,           0.
287,           0.,           0.,           1.,          -1.,           0.,           0.
288,           0.,           0.,           1.,          -1.,           0.,           0.
** ... 1168 like lines cut
*Orientation, name=Ori-1, system=RECTANGULAR
Ori-1-DiscOrient
3, 0.
** Region: (CompositeLayup-BOTTOM-1: Generated From Layup)
*Elset, elset=CompositeLayup-BOTTOM-1
    1,    2,    3,    4,    5,    6,    7,    8,  269,  270,  271,  272,  289,  290,  291,  292
  553,  554,  555,  556,  557,  558,  559,  560,  677,  678,  679,  680,  681,  682,  683,  684
  685,  686,  687,  688,  689,  690,  691,  692,  693,  694,  695,  696,  697,  698,  699,  700
  701,  702,  703,  704,  705,  706,  707,  708,  709,  710,  711,  712,  713,  714,  715,  716
  717,  718,  719,  720,  721,  722,  723,  724,  725,  726,  727,  728,  729,  730,  731,  732
  733,  734,  735,  736,  737,  738,  770,  771,  772,  773,  774,  775,  776,  777,  778,  779
  780,  781,  782,  783,  784,  785,  786,  787,  788,  789,  790,  791,  792,  793,  794,  795
  796,  797,  798,  799,  800,  941,  942,  943,  944,  945,  946,  947,  948,  949,  950,  951
  952,  953,  954,  955,  956,  957,  958,  959,  960,  961,  962,  963,  964,  965,  966,  967
  968,  969,  970,  971, 1003, 1004, 1005, 1006, 1007, 1008, 1009, 1010, 1011, 1012, 1013, 1014
 1015, 1016, 1017, 1018, 1019, 1020, 1021, 1022, 1023, 1024, 1025, 1026, 1027, 1028, 1029, 1030
 1031, 1032, 1033, 1034, 1035, 1036, 1037, 1038, 1039, 1040, 1041, 1042, 1043, 1044, 1045, 1046
 1047, 1048, 1049, 1050, 1051, 1052, 1053, 1054, 1055, 1056, 1057, 1058, 1059, 1060, 1061, 1062
 1063, 1064, 1604, 1605, 1606, 1607, 1608, 1609, 1610, 1611, 1612, 1613, 1614, 1615, 1616, 1617
 1618, 1619, 1620, 1621, 1622, 1623, 1624, 1625, 1626, 1627, 1628, 1629, 1630, 1631, 1632, 1633
 1634, 1635, 1636, 1637, 1638, 1639, 1640, 1641, 1642, 1643, 1644, 1645, 1646, 1647, 1648, 1649
 1650, 1651, 1652, 1653, 1654, 1655, 1656, 1657, 1658, 1659, 1660, 1661, 1662, 1663, 1664, 1665
 1666, 1667, 1668, 1669, 1670, 1671, 1672, 1673, 1674, 1675, 1676, 1677, 1678, 1679, 1680, 1681
 1682, 1683, 1684, 1685, 1686, 1687, 1688, 1689, 1690, 1691, 1692, 1693, 1694, 1695, 1696, 1697
 1698, 1699, 1700, 1701, 1702, 1703, 1704, 1705, 1706, 1707, 1708, 1709, 1710, 1711, 1712, 1713
** ... 18 like lines cut
** Section: CompositeLayup-BOTTOM-1
*Shell Section, elset=CompositeLayup-BOTTOM-1, composite, orientation=Ori-1, layup=CompositeLayup-BOTTOM
0.25, 3, S-glass/Epoxy, 0., Ply-1
0.25, 3, S-glass/Epoxy, 90., Ply-2
0.25, 3, S-glass/Epoxy, 90., Ply-3
0.25, 3, S-glass/Epoxy, 0., Ply-4
*Orientation, name=Ori-2, system=RECTANGULAR
Ori-2-DiscOrient
3, 0.
** Region: (CompositeLayup-SIDE1-1: Generated From Layup)
*Elset, elset=CompositeLayup-SIDE1-1
    9,   10,   11,   12,   13,   14,   15,   16,   17,   18,   19,   20,   21,   22,   23,   24
   25,   26,   27,   28,   29,   30,   31,   32,   33,   34,   35,   36,   37,   38,   39,   40
   41,   42,   43,   44,   45,   46,   47,   48,   49,   50,   51,   52,   53,   54,   55,   56
   57,   58,   59,   60,   61,   62,   63,   64,   65,   66,   67,   68,   69,   70,   71,   72
   73,   74,   75,   76,   77,   78,   79,   80,   81,   82,   83,   84,   85,   86,   87,   88
   89,   90,   91,   92,   93,   94,   95,   96,   97,   98,   99,  100,  101,  102,  103,  104
  105,  106,  107,  108,  109,  110,  111,  112,  113,  114,  115,  116,  117,  118,  119,  120
  121,  122,  123,  124,  125,  126,  127,  128,  129,  130,  131,  132,  133,  134,  135,  136
  137,  138,  139,  140,  141,  142,  143,  144,  145,  146,  147,  148,  149,  150,  151,  152
  153,  154,  155,  156,  157,  158,  159,  160,  161,  162,  163,  164,  165,  166,  167,  168
  169,  170,  171,  172,  173,  174,  175,  176,  177,  178,  179,  180,  181,  182,  183,  184
  185,  186,  187,  188,  189,  190,  191,  192,  193,  194,  195,  196,  197,  198,  199,  200
  201,  202,  203,  204,  205,  206,  207,  208,  209,  210,  211,  212,  213,  214,  215,  216
  217,  218,  219,  220,  221,  222,  223,  224,  225,  226,  227,  228,  229,  230,  231,  232
  233,  234,  235,  236,  237,  238,  239,  240,  241,  242,  243,  244,  245,  246,  247,  248
  249,  250,  251,  252,  253,  254,  255,  256,  257,  258,  259,  260,  261,  262,  263,  264
  661,  662,  663,  664,  665,  666,  667,  668,  669,  670,  671,  672,  673,  674,  675,  676
 2723, 2724, 2725, 2726, 2727, 2728, 2729, 2730, 2731, 2732, 2733, 2734, 2735, 2736, 2737, 2738
 2739, 2740, 2741, 2742, 2743, 2744, 2745, 2746, 2747, 2748, 2749, 2750, 2751, 2752, 2753, 2754
 2755, 2756, 2757, 2758, 2759, 2760, 2761, 2762, 2763, 2764, 2765, 2766, 2767, 2768, 2769, 2770
** ... 5 like lines cut
** Section: CompositeLayup-SIDE1-1
*Shell Section, elset=CompositeLayup-SIDE1-1, composite, orientation=Ori-2, layup=CompositeLayup-SIDE1
0.25, 3, S-glass/Epoxy, 0., Ply-1
0.25, 3, S-glass/Epoxy, 0., Ply-2
0.25, 3, S-glass/Epoxy, 45., Ply-3
0.25, 3, S-glass/Epoxy, -45., Ply-4
0.25, 3, S-glass/Epoxy, -45., Ply-5
0.25, 3, S-glass/Epoxy, 45., Ply-6
0.25, 3, S-glass/Epoxy, 0., Ply-7
0.25, 3, S-glass/Epoxy, 0., Ply-8
*Orientation, name=Ori-5, system=RECTANGULAR
Ori-5-DiscOrient
3, 0.
** Region: (CompositeLayup-TOP-1: Generated From Layup)
*Elset, elset=CompositeLayup-TOP-1
  265,  266,  267,  268,  273,  274,  275,  276,  277,  278,  279,  280,  281,  282,  283,  284
  285,  286,  287,  288,  549,  550,  551,  552,  561,  562,  563,  564,  581,  582,  583,  584
  585,  586,  587,  588,  589,  590,  591,  592,  593,  594,  595,  596,  597,  598,  599,  600
  601,  602,  603,  604,  605,  606,  607,  608,  609,  610,  611,  612,  613,  614,  615,  616
  617,  618,  619,  620,  621,  622,  623,  624,  625,  626,  627,  628,  629,  630,  631,  632
  633,  634,  635,  636,  637,  638,  639,  640,  641,  642,  643,  644,  645,  646,  647,  648
  649,  650,  651,  652,  653,  654,  655,  656,  657,  658,  659,  660,  739,  740,  741,  742
  743,  744,  745,  746,  747,  748,  749,  750,  751,  752,  753,  754,  755,  756,  757,  758
  759,  760,  761,  762,  763,  764,  765,  766,  767,  768,  769,  801,  802,  803,  804,  805
  806,  807,  808,  809,  810,  811,  812,  813,  814,  815,  816,  817,  818,  819,  820,  821
  822,  823,  824,  825,  826,  827,  828,  829,  830,  831,  832,  833,  834,  835,  836,  837
  838,  839,  840,  841,  842,  843,  844,  845,  846,  847,  848,  849,  850,  851,  852,  853
  854,  855,  856,  857,  858,  859,  860,  861,  862,  863,  864,  865,  866,  867,  868,  869
  870,  871,  872,  873,  874,  875,  876,  877,  878,  879,  880,  881,  882,  883,  884,  885
  886,  887,  888,  889,  890,  891,  892,  893,  894,  895,  896,  897,  898,  899,  900,  901
  902,  903,  904,  905,  906,  907,  908,  909,  910,  911,  912,  913,  914,  915,  916,  917
  918,  919,  920,  921,  922,  923,  924,  972,  973,  974,  975,  976,  977,  978,  979,  980
  981,  982,  983,  984,  985,  986,  987,  988,  989,  990,  991,  992,  993,  994,  995,  996
  997,  998,  999, 1000, 1001, 1002, 1065, 1066, 1067, 1068, 1069, 1070, 1071, 1072, 1073, 1074
 1075, 1076, 1077, 1078, 1079, 1080, 1081, 1082, 1083, 1084, 1085, 1086, 1087, 1088, 1089, 1090
** ... 55 like lines cut
** Section: CompositeLayup-TOP-1
*Shell Section, elset=CompositeLayup-TOP-1, composite, orientation=Ori-5, layup=CompositeLayup-TOP
0.25, 3, S-glass/Epoxy, 0., Ply-5
0.25, 3, S-glass/Epoxy, 90., Ply-6
0.25, 3, S-glass/Epoxy, 0., Ply-7
0.25, 3, S-glass/Epoxy, 90., Ply-8
0.25, 3, S-glass/Epoxy, 90., Ply-1
0.25, 3, S-glass/Epoxy, 0., Ply-2
0.25, 3, S-glass/Epoxy, 90., Ply-3
0.25, 3, S-glass/Epoxy, 0., Ply-4
*Orientation, name=Ori-4, system=RECTANGULAR
Ori-4-DiscOrient
3, 0.
** Region: (CompositeLayup-SPAR-1: Generated From Layup)
*Elset, elset=CompositeLayup-SPAR-1
  293,  294,  295,  296,  297,  298,  299,  300,  301,  302,  303,  304,  305,  306,  307,  308
  309,  310,  311,  312,  313,  314,  315,  316,  317,  318,  319,  320,  321,  322,  323,  324
  325,  326,  327,  328,  329,  330,  331,  332,  333,  334,  335,  336,  337,  338,  339,  340
  341,  342,  343,  344,  345,  346,  347,  348,  349,  350,  351,  352,  353,  354,  355,  356
  357,  358,  359,  360,  361,  362,  363,  364,  365,  366,  367,  368,  369,  370,  371,  372
  373,  374,  375,  376,  377,  378,  379,  380,  381,  382,  383,  384,  385,  386,  387,  388
  389,  390,  391,  392,  393,  394,  395,  396,  397,  398,  399,  400,  401,  402,  403,  404
  405,  406,  407,  408,  409,  410,  411,  412,  413,  414,  415,  416,  417,  418,  419,  420
  421,  422,  423,  424,  425,  426,  427,  428,  429,  430,  431,  432,  433,  434,  435,  436
  437,  438,  439,  440,  441,  442,  443,  444,  445,  446,  447,  448,  449,  450,  451,  452
  453,  454,  455,  456,  457,  458,  459,  460,  461,  462,  463,  464,  465,  466,  467,  468
  469,  470,  471,  472,  473,  474,  475,  476,  477,  478,  479,  480,  481,  482,  483,  484
  485,  486,  487,  488,  489,  490,  491,  492,  493,  494,  495,  496,  497,  498,  499,  500
  501,  502,  503,  504,  505,  506,  507,  508,  509,  510,  511,  512,  513,  514,  515,  516
  517,  518,  519,  520,  521,  522,  523,  524,  525,  526,  527,  528,  529,  530,  531,  532
  533,  534,  535,  536,  537,  538,  539,  540,  541,  542,  543,  544,  545,  546,  547,  548
  925,  926,  927,  928,  929,  930,  931,  932,  933,  934,  935,  936,  937,  938,  939,  940
 2847, 2848, 2849, 2850, 2851, 2852, 2853, 2854, 2855, 2856, 2857, 2858, 2859, 2860, 2861, 2862
 2863, 2864, 2865, 2866, 2867, 2868, 2869, 2870, 2871, 2872, 2873, 2874, 2875, 2876, 2877, 2878
 2879, 2880, 2881, 2882, 2883, 2884, 2885, 2886, 2887, 2888, 2889, 2890, 2891, 2892, 2893, 2894
** ... 5 like lines cut
** Section: CompositeLayup-SPAR-1
*Shell Section, elset=CompositeLayup-SPAR-1, composite, orientation=Ori-4, layup=CompositeLayup-SPAR
0.25, 3, S-glass/Epoxy, 0., Ply-1
0.25, 3, S-glass/Epoxy, 0., Ply-2
0.25, 3, S-glass/Epoxy, 45., Ply-3
0.25, 3, S-glass/Epoxy, -45., Ply-4
0.25, 3, S-glass/Epoxy, -45., Ply-5
0.25, 3, S-glass/Epoxy, 45., Ply-6
0.25, 3, S-glass/Epoxy, 0., Ply-7
0.25, 3, S-glass/Epoxy, 0., Ply-8
*Orientation, name=Ori-3, system=RECTANGULAR
Ori-3-DiscOrient
3, 0.
** Region: (CompositeLayup-SIDE2-1: Generated From Layup)
*Elset, elset=CompositeLayup-SIDE2-1
  565,  566,  567,  568,  569,  570,  571,  572,  573,  574,  575,  576,  577,  578,  579,  580
 1096, 1097, 1098, 1099, 1100, 1101, 1102, 1103, 1104, 1105, 1106, 1107, 1108, 1109, 1110, 1111
 1112, 1113, 1114, 1115, 1116, 1117, 1118, 1119, 1120, 1121, 1122, 1123, 1124, 1125, 1126, 1127
 1128, 1129, 1130, 1131, 1132, 1133, 1134, 1135, 1136, 1137, 1138, 1139, 1140, 1141, 1142, 1143
 1144, 1145, 1146, 1147, 1148, 1149, 1150, 1151, 1152, 1153, 1154, 1155, 1156, 1157, 1158, 1159
 1160, 1161, 1162, 1163, 1164, 1165, 1166, 1167, 1168, 1169, 1170, 1171, 1172, 1173, 1174, 1175
 1176, 1177, 1178, 1179, 1180, 1181, 1182, 1183, 1184, 1185, 1186, 1187, 1188, 1189, 1190, 1191
 1192, 1193, 1194, 1195, 1196, 1197, 1198, 1199, 1200, 1201, 1202, 1203, 1204, 1205, 1206, 1207
 1208, 1209, 1210, 1211, 1212, 1213, 1214, 1215, 1216, 1217, 1218, 1219, 2339, 2340, 2341, 2342
 2343, 2344, 2345, 2346, 2347, 2348, 2349, 2350, 2351, 2352, 2353, 2354, 2355, 2356, 2357, 2358
 2359, 2360, 2361, 2362, 2363, 2364, 2365, 2366, 2367, 2368, 2369, 2370, 2371, 2372, 2373, 2374
 2375, 2376, 2377, 2378, 2379, 2380, 2381, 2382, 2383, 2384, 2385, 2386, 2387, 2388, 2389, 2390
 2391, 2392, 2393, 2394, 2395, 2396, 2397, 2398, 2399, 2400, 2401, 2402, 2403, 2404, 2405, 2406
 2407, 2408, 2409, 2410, 2411, 2412, 2413, 2414, 2415, 2416, 2417, 2418, 2419, 2420, 2421, 2422
 2423, 2424, 2425, 2426, 2427, 2428, 2429, 2430, 2431, 2432, 2433, 2434, 2435, 2436, 2437, 2438
 2439, 2440, 2441, 2442, 2443, 2444, 2445, 2446, 2447, 2448, 2449, 2450, 2451, 2452, 2453, 2454
 2455, 2456, 2457, 2458, 2459, 2460, 2461, 2462, 2463, 2464, 2465, 2466, 2467, 2468, 2469, 2470
 2471, 2472, 2473, 2474, 2475, 2476, 2477, 2478, 2479, 2480, 2481, 2482, 2483, 2484, 2485, 2486
 2487, 2488, 2489, 2490, 2491, 2492, 2493, 2494, 2495, 2496, 2497, 2498, 2499, 2500, 2501, 2502
 2503, 2504, 2505, 2506, 2507, 2508, 2509, 2510, 2511, 2512, 2513, 2514, 2515, 2516, 2517, 2518
** ... 5 like lines cut
** Section: CompositeLayup-SIDE2-1
*Shell Section, elset=CompositeLayup-SIDE2-1, composite, orientation=Ori-3, layup=CompositeLayup-SIDE2
0.25, 3, S-glass/Epoxy, 0., Ply-1
0.25, 3, S-glass/Epoxy, -45., Ply-2
0.25, 3, S-glass/Epoxy, 45., Ply-3
0.25, 3, S-glass/Epoxy, -45., Ply-4
0.25, 3, S-glass/Epoxy, -45., Ply-5
0.25, 3, S-glass/Epoxy, 45., Ply-6
0.25, 3, S-glass/Epoxy, 0., Ply-7
0.25, 3, S-glass/Epoxy, 0., Ply-8
*End Part
**  
**
** ASSEMBLY
**
*Assembly, name=Assembly
**  
*Instance, name=Box, part=Box
          0.,           0.,           0.
          0.,           0.,           0., 0.577350269189626, 0.577350269189626, 0.577350269189626,         120.
*End Instance
**  
*Node
      1,           0.,           0.,           0.
*Node
      2,        1800.,           0.,           0.
*Nset, nset=CONTACT-SURFACE, instance=Box
  13,  14,  17,  20,  23,  24, 201, 202, 203, 342, 343, 344, 350, 351, 352
*Elset, elset=CONTACT-SURFACE, instance=Box
 549, 550, 551, 552, 561, 562, 563, 564
*Nset, nset=EDGES1, instance=Box
    6,    7,   18,   19,   28,   29,   42,   43,   44,   45,   46,   48,  123,  124,  125,  276
  277,  278,  844,  845,  846,  910, 1193, 1194, 1195, 1259, 1260, 1261, 1262
*Elset, elset=EDGES1, instance=Box
  261,  262,  263,  264,  545,  546,  547,  548,  660, 1600, 1601, 1602, 1603, 1730, 1731, 1795
 1859, 1923, 1987, 2271, 2272, 2273, 2274, 2338, 2591, 2592, 2593, 2594, 2721, 2722
*Nset, nset=EDGES2, instance=Box
   30,   31,   32,   33,   34,   35,   36,   37,   38,   39,   40,   47,  527,  678,  679,  680
  774,  835,  836,  837,  838,  839,  840, 1263, 1264, 1265, 1266, 1267, 1268
*Elset, elset=EDGES2, instance=Box
  737,  738,  769,  800,  921,  922,  923,  924,  971, 1002, 1063, 1064, 1095, 1216, 1217, 1218
 1219, 1340, 1341, 1342, 1343, 2018, 2843, 2844, 2845, 2846, 2967, 2968, 2969, 2970
*Nset, nset=RF1
 1,
*Nset, nset=RF2
 2,
*Surface, type=NODE, name=EDGES1_CNS_, internal
EDGES1, 1.
*Surface, type=NODE, name=EDGES2_CNS_, internal
EDGES2, 1.
** Constraint: Constraint-1
*MPC
BEAM, EDGES1, RF1
** Constraint: Constraint-2
*MPC
BEAM, EDGES2, RF2
*Nonstructural Mass, elset=CONTACT-SURFACE, units=TOTAL MASS
0.05, 
*End Assembly
*Distribution Table, name=Ori-1-DiscOrient_Table
coord3D, coord3D
*Distribution Table, name=Ori-2-DiscOrient_Table
coord3D, coord3D
*Distribution Table, name=Ori-3-DiscOrient_Table
coord3D, coord3D
*Distribution Table, name=Ori-4-DiscOrient_Table
coord3D, coord3D
*Distribution Table, name=Ori-5-DiscOrient_Table
coord3D, coord3D
** 
** MATERIALS
** 
*Material, name=S-glass/Epoxy
*Density
 2e-09,
*Elastic, type=LAMINA
48000.,11000.,   0.3, 4200., 4200., 3600.
*Fail Stress
1300., 800.,  40., 140.,  70., -0.5,   0.
** 
** BOUNDARY CONDITIONS
** 
** Name: BC1 Type: Displacement/Rotation
*Boundary
RF1, 1, 1
RF1, 2, 2
RF1, 3, 3
RF1, 4, 4
RF1, 5, 5
RF1, 6, 6
** Name: BC2 Type: Displacement/Rotation
*Boundary
RF2, 1, 1
RF2, 2, 2
RF2, 3, 3
RF2, 4, 4
RF2, 5, 5
RF2, 6, 6
** ----------------------------------------------------------------
** 
** STEP: Step-Buck
** 
*Step, name=Step-Buck, nlgeom=NO, perturbation
*Buckle
2, , 4, 700
** 
** BOUNDARY CONDITIONS
** 
** Name: BC1 Type: Displacement/Rotation
*Boundary, op=NEW, load case=1
RF1, 1, 1
RF1, 2, 2
RF1, 3, 3
RF1, 4, 4
RF1, 6, 6
*Boundary, op=NEW, load case=2
RF1, 1, 1
RF1, 2, 2
RF1, 3, 3
RF1, 4, 4
RF1, 6, 6
** Name: BC2 Type: Displacement/Rotation
*Boundary, op=NEW, load case=1
RF2, 2, 2
RF2, 4, 4
RF2, 5, 5
RF2, 6, 6
*Boundary, op=NEW, load case=2
RF2, 2, 2
RF2, 4, 4
RF2, 5, 5
RF2, 6, 6
** 
** LOADS
** 
** Name: Load-1   Type: Gravity
*Dload, op=NEW
, GRAV, 9810., 0., 0., -1.
** 
** OUTPUT REQUESTS
** 
*Restart, write, frequency=0
** 
** FIELD OUTPUT: F-Output-1
** 
*Output, field, variable=PRESELECT
*End Step
** ----------------------------------------------------------------
** 
** STEP: Step-Stat
** 
*Step, name=Step-Stat, nlgeom=NO
*Static
1., 1., 1e-05, 1.
** 
** BOUNDARY CONDITIONS
** 
** Name: BC1 Type: Displacement/Rotation
*Boundary, op=NEW
RF1, 1, 1
RF1, 2, 2
RF1, 3, 3
RF1, 4, 4
RF1, 6, 6
** Name: BC2 Type: Displacement/Rotation
*Boundary, op=NEW
RF2, 2, 2
RF2, 4, 4
RF2, 5, 5
RF2, 6, 6
** 
** LOADS
** 
** Name: Load-2   Type: Gravity
*Dload, op=NEW
, GRAV, 9810., 0., 0., -1.
** 
** OUTPUT REQUESTS
** 
*Restart, write, frequency=0
** 
** FIELD OUTPUT: fe_bottom
** 
*Output, field
*Element Output, elset=Box.CompositeLayup-BOTTOM-1, directions=YES
1, 2, 3, 4, 5, 6, 7, 8, 9, 10, 11, 12
CFAILURE, 
** 
** FIELD OUTPUT: fe_side1
** 
*Element Output, elset=Box.CompositeLayup-SIDE1-1, directions=YES
1, 2, 3, 4, 5, 6, 7, 8, 9, 10, 11, 12, 13, 14, 15, 16
CFAILURE, 
*Element Output, elset=Box.CompositeLayup-SIDE1-1, directions=YES
17, 18, 19, 20, 21, 22, 23, 24
CFAILURE, 
** 
** FIELD OUTPUT: fe_side2
** 
*Element Output, elset=Box.CompositeLayup-SIDE2-1, directions=YES
1, 2, 3, 4, 5, 6, 7, 8, 9, 10, 11, 12, 13, 14, 15, 16
CFAILURE, 
*Element Output, elset=Box.CompositeLayup-SIDE2-1, directions=YES
17, 18, 19, 20, 21, 22, 23, 24
CFAILURE, 
** 
** FIELD OUTPUT: fe_spar
** 
*Element Output, elset=Box.CompositeLayup-SPAR-1, directions=YES
1, 2, 3, 4, 5, 6, 7, 8, 9, 10, 11, 12, 13, 14, 15, 16
CFAILURE, 
*Element Output, elset=Box.CompositeLayup-SPAR-1, directions=YES
17, 18, 19, 20, 21, 22, 23, 24
CFAILURE, 
** 
** FIELD OUTPUT: fe_top
** 
*Element Output, elset=Box.CompositeLayup-TOP-1, directions=YES
1, 2, 3, 4, 5, 6, 7, 8, 9, 10, 11, 12, 13, 14, 15, 16
CFAILURE, 
*Element Output, elset=Box.CompositeLayup-TOP-1, directions=YES
17, 18, 19, 20, 21, 22, 23, 24
CFAILURE, 
** 
** FIELD OUTPUT: F-Output-2
** 
*Output, field, variable=PRESELECT
** 
** HISTORY OUTPUT: H-Output-1
** 
*Output, history, variable=PRESELECT
*End Step
