*Heading
** Job name: Job-2 Model name: BP-1
** Generated by: Abaqus/CAE 2022
*Preprint, echo=NO, model=NO, history=NO, contact=NO
**
** PARTS
**
*Part, name=Box
*Node
      1,         29.5,        -14.5,         200.
      2,        -29.5,        -14.5,         200.
      3,        -29.5,        -14.5,           0.
      4,         29.5,        -14.5,           0.
      5,         29.5,         14.5,         200.
      6,         29.5,         14.5,         300.
      7,         29.5,        -14.5,         300.
      8,        -29.5,         14.5,         200.
      9,        -29.5,         14.5,         300.
     10,        -29.5,         14.5,           0.
     11,        -29.5,        -14.5,         300.
     12,         29.5,         14.5,           0.
     13,    24.583334,        -14.5,         200.
     14,    19.666666,        -14.5,         200.
     15,        14.75,        -14.5,         200.
     16,   9.83333302,        -14.5,         200.
     17,   4.91666651,        -14.5,         200.
     18,           0.,        -14.5,         200.
     19,  -4.91666651,        -14.5,         200.
     20,  -9.83333302,        -14.5,         200.
** ... 2176 like lines cut
*Element, type=S4R
  1,   1,  13, 341, 112
  2,  13,  14, 342, 341
  3,  14,  15, 343, 342
  4,  15,  16, 344, 343
  5,  16,  17, 345, 344
  6,  17,  18, 346, 345
  7,  18,  19, 347, 346
  8,  19,  20, 348, 347
  9,  20,  21, 349, 348
 10,  21,  22, 350, 349
 11,  22,  23, 351, 350
 12,  23,   2,  24, 351
 13, 112, 341, 352, 111
 14, 341, 342, 353, 352
 15, 342, 343, 354, 353
 16, 343, 344, 355, 354
 17, 344, 345, 356, 355
 18, 345, 346, 357, 356
 19, 346, 347, 358, 357
 20, 347, 348, 359, 358
** ... 2140 like lines cut
*Nset, nset=faces-all, generate
    1,  2196,     1
*Elset, elset=faces-all, generate
    1,  2160,     1
** Section: Section-shell
*Shell Section, elset=faces-all, material=Alu
1., 5
*End Part
**  
**
** ASSEMBLY
**
*Assembly, name=Assembly
**  
*Instance, name=Box, part=Box
          0.,           0.,           0.
          0.,           0.,           0., 0.577350269189626, 0.577350269189626, 0.577350269189626,         120.
*End Instance
**  
*Node
      1,           0.,           0.,           0.
*Node
      2,         300.,           0.,           0.
*Nset, nset=CENTERLINE, instance=Box
   5,   8, 161, 162, 163, 164, 165, 166, 167, 168, 169, 170, 171
*Elset, elset=CENTERLINE, instance=Box
  601,  602,  603,  604,  605,  606,  607,  608,  609,  610,  611,  612, 1201, 1202, 1203, 1204
 1205, 1206, 1207, 1208, 1209, 1210, 1211, 1212
*Nset, nset=EDGES1, instance=Box
   3,   4,  10,  12,  63,  64,  65,  66,  67,  68,  69,  70,  71,  72,  73, 246
 247, 248, 249, 250, 314, 315, 316, 317, 318, 319, 320, 321, 322, 323, 324, 325
 326, 327, 328, 329
*Elset, elset=EDGES1, instance=Box
  469,  470,  471,  472,  473,  474,  475,  476,  477,  478,  479,  480, 1075, 1076, 1077, 1078
 1079, 1080, 1669, 1670, 1671, 1672, 1673, 1674, 1675, 1676, 1677, 1678, 1679, 1680, 1915, 1916
 1917, 1918, 1919, 1920
*Nset, nset=EDGES2, instance=Box
   6,   7,   9,  11, 137, 138, 139, 140, 141, 191, 192, 193, 194, 195, 196, 197
 198, 199, 200, 201, 270, 271, 272, 273, 274, 330, 331, 332, 333, 334, 335, 336
 337, 338, 339, 340
*Elset, elset=EDGES2, instance=Box
  595,  596,  597,  598,  599,  600,  829,  830,  831,  832,  833,  834,  835,  836,  837,  838
  839,  840, 1195, 1196, 1197, 1198, 1199, 1200, 2149, 2150, 2151, 2152, 2153, 2154, 2155, 2156
 2157, 2158, 2159, 2160
*Nset, nset=RF1
 1,
*Nset, nset=RF2
 2,
*Surface, type=NODE, name=EDGES1_CNS_, internal
EDGES1, 1.
*Surface, type=NODE, name=EDGES2_CNS_, internal
EDGES2, 1.
** Constraint: Constraint-1
*MPC
BEAM, EDGES1, RF1
** Constraint: Constraint-2
*MPC
BEAM, EDGES2, RF2
*End Assembly
** 
** MATERIALS
** 
*Material, name=Alu
*Elastic
70000., 0.33
** 
** BOUNDARY CONDITIONS
** 
** Name: BC1 Type: Displacement/Rotation
*Boundary
RF1, 1, 1
RF1, 2, 2
RF1, 3, 3
RF1, 4, 4
RF1, 5, 5
RF1, 6, 6
** Name: BC2 Type: Displacement/Rotation
*Boundary
RF2, 1, 1
RF2, 2, 2
RF2, 3, 3
RF2, 4, 4
RF2, 5, 5
RF2, 6, 6
** Name: BC3 Type: Displacement/Rotation
*Boundary
** ----------------------------------------------------------------
** 
** STEP: Step-Buck
** 
*Step, name=Step-Buck, nlgeom=NO, perturbation
*Buckle
2, , 4, 500
** 
** BOUNDARY CONDITIONS
** 
** Name: BC1 Type: Displacement/Rotation
*Boundary, op=NEW, load case=1
RF1, 1, 1
RF1, 2, 2
RF1, 3, 3
RF1, 4, 4
RF1, 6, 6
*Boundary, op=NEW, load case=2
RF1, 1, 1
RF1, 2, 2
RF1, 3, 3
RF1, 4, 4
RF1, 6, 6
** Name: BC2 Type: Displacement/Rotation
*Boundary, op=NEW, load case=1
RF2, 2, 2
RF2, 3, 3
RF2, 4, 4
RF2, 5, 5
RF2, 6, 6
*Boundary, op=NEW, load case=2
RF2, 2, 2
RF2, 3, 3
RF2, 4, 4
RF2, 5, 5
RF2, 6, 6
** Name: BC3 Type: Displacement/Rotation
*Boundary, op=NEW, load case=1
CENTERLINE, 3, 3, -1.
*Boundary, op=NEW, load case=2
CENTERLINE, 3, 3, -1.
** 
** OUTPUT REQUESTS
** 
*Restart, write, frequency=0
** 
** FIELD OUTPUT: F-Output-1
** 
*Output, field, variable=PRESELECT
*End Step
** ----------------------------------------------------------------
** 
** STEP: Step-Stat
** 
*Step, name=Step-Stat, nlgeom=NO
*Static
1., 1., 1e-05, 1.
** 
** BOUNDARY CONDITIONS
** 
** Name: BC1 Type: Displacement/Rotation
*Boundary, op=NEW
RF1, 1, 1
RF1, 2, 2
RF1, 3, 3
RF1, 4, 4
RF1, 6, 6
** Name: BC2 Type: Displacement/Rotation
*Boundary, op=NEW
RF2, 2, 2
RF2, 3, 3
RF2, 4, 4
RF2, 5, 5
RF2, 6, 6
** Name: BC3 Type: Displacement/Rotation
*Boundary, op=NEW
CENTERLINE, 3, 3, -1.
** 
** OUTPUT REQUESTS
** 
*Restart, write, frequency=0
** 
** FIELD OUTPUT: F-Output-2
** 
*Output, field, variable=PRESELECT
** 
** HISTORY OUTPUT: H-Output-1
** 
*Output, history, variable=PRESELECT
*End Step
