*Heading
** Job name: Job-3 Model name: BP-1
** Generated by: Abaqus/CAE 2022
*Preprint, echo=NO, model=NO, history=NO, contact=NO
**
** PARTS
**
*Part, name=Box
*Node
      1,         -20.,        37.25,           0.
      2,         -20.,        37.25,        1200.
      3,  -19.9500008,        37.25,        1200.
      4,  -19.9500008,        37.25,           0.
      5,         -20.,        37.25,        1800.
      6,  -59.8499985,        37.25,        1200.
      7,  -59.8499985,        37.25,        1800.
      8,         -20.,       -37.25,        1800.
      9,         -20.,       -37.25,        1200.
     10,  -19.9500008,       -37.25,        1200.
     11,  -19.9500008,       -37.25,        1800.
     12,         -20.,       -37.25,           0.
     13,  -59.8499985,       -37.25,        1200.
     14,  -59.8499985,       -37.25,           0.
     15,          20.,        37.25,           0.
     16,          20.,        37.25,        1200.
     17,   59.8499985,        37.25,        1200.
     18,   59.8499985,        37.25,           0.
     19,          20.,        37.25,        1800.
     20,   19.9500008,        37.25,        1200.
** ... 3984 like lines cut
*Element, type=S4R
 1,   1,  49, 166,   4
 2,  49,  50, 165, 166
 3,  50,  51, 164, 165
 4,  51,  52, 163, 164
 5,  52,  53, 162, 163
 6,  53,  54, 161, 162
 7,  54,  55, 160, 161
 8,  55,  56, 159, 160
 9,  56,  57, 158, 159
10,  57,  58, 157, 158
11,  58,  59, 156, 157
12,  59,  60, 155, 156
13,  60,  61, 154, 155
14,  61,  62, 153, 154
15,  62,  63, 152, 153
16,  63,  64, 151, 152
17,  64,  65, 150, 151
18,  65,  66, 149, 150
19,  66,  67, 148, 149
20,  67,  68, 147, 148
** ... 4300 like lines cut
*Nset, nset=faces-all, generate
    1,  4004,     1
*Elset, elset=faces-all, generate
    1,  4320,     1
** Section: Section-shell
*Shell Section, elset=faces-all, material=Alu
0.5, 5
*End Part
**  
**
** ASSEMBLY
**
*Assembly, name=Assembly
**  
*Instance, name=Box, part=Box
          0.,           0.,           0.
          0.,           0.,           0., 0.577350269189626, 0.577350269189626, 0.577350269189626,         120.
*End Instance
**  
*Node
      1,           0.,           0.,           0.
*Node
      2,        1800.,           0.,           0.
*Nset, nset=CONTACT-POINT, instance=Box
    2,    3,   16,   20, 1014
*Elset, elset=CONTACT-POINT, instance=Box
   60,  420, 1261, 1262, 1681, 2431, 3061, 3062
*Nset, nset=EDGES1, instance=Box
    1,    4,   12,   14,   15,   18,   26,   28,   31,   32,   35,   38,   44,   45,   46,   47
  404,  524,  823,  824,  825, 1005, 1013, 1140, 1308, 1309, 1369, 1488, 1521, 1522, 1523, 1524
 1529, 1530, 1531, 1532, 1533, 1534, 1535, 1536, 1537, 1538, 1539, 1540
*Elset, elset=EDGES1, instance=Box
    1,  151,  211,  271,  331,  481,  777,  778,  779,  780,  959,  960, 1200, 1260, 1559, 1560
 1770, 2189, 2190, 2309, 2310, 2429, 2430, 2490, 2550, 2610, 3057, 3058, 3059, 3060, 3179, 3180
 3597, 3598, 3599, 3600, 3837, 3838, 3839, 3840, 4077, 4078, 4079, 4080, 4317, 4318, 4319, 4320
*Nset, nset=EDGES2, instance=Box
    5,    7,    8,   11,   19,   21,   22,   25,   33,   34,   36,   37,   39,   41,   43,   48
  226,  642,  915, 1006, 1010, 1011, 1012, 1044, 1077, 1078, 1079, 1144, 1145, 1146, 1179, 1180
 1181, 1212, 1245, 1246, 1247, 1518, 1519, 1520, 1525, 1526, 1527, 1528
*Elset, elset=EDGES2, instance=Box
   61,   91,  121,  391,  421,  451,  839,  840,  990, 1020, 1137, 1138, 1139, 1140, 1319, 1320
 1437, 1438, 1439, 1440, 1677, 1678, 1679, 1680, 1710, 1887, 1888, 1889, 1890, 1949, 1950, 2067
 2068, 2069, 2070, 2669, 2670, 2729, 2730, 2760, 2790, 2820, 3297, 3298, 3299, 3300, 3359, 3360
*Nset, nset=RF1
 1,
*Nset, nset=RF2
 2,
*Surface, type=NODE, name=EDGES1_CNS_, internal
EDGES1, 1.
*Surface, type=NODE, name=EDGES2_CNS_, internal
EDGES2, 1.
** Constraint: Constraint-1
*MPC
BEAM, EDGES1, RF1
** Constraint: Constraint-2
*MPC
BEAM, EDGES2, RF2
*End Assembly
** 
** MATERIALS
** 
*Material, name=Alu
*Elastic
70000., 0.33
** 
** BOUNDARY CONDITIONS
** 
** Name: BC1 Type: Displacement/Rotation
*Boundary
RF1, 1, 1
RF1, 2, 2
RF1, 3, 3
RF1, 4, 4
RF1, 5, 5
RF1, 6, 6
** Name: BC2 Type: Displacement/Rotation
*Boundary
RF2, 1, 1
RF2, 2, 2
RF2, 3, 3
RF2, 4, 4
RF2, 5, 5
RF2, 6, 6
** Name: BC3 Type: Displacement/Rotation
*Boundary
** ----------------------------------------------------------------
** 
** STEP: Step-Buck
** 
*Step, name=Step-Buck, nlgeom=NO, perturbation
*Buckle
2, , 4, 500
** 
** BOUNDARY CONDITIONS
** 
** Name: BC1 Type: Displacement/Rotation
*Boundary, op=NEW, load case=1
RF1, 1, 1
RF1, 2, 2
RF1, 3, 3
RF1, 4, 4
RF1, 6, 6
*Boundary, op=NEW, load case=2
RF1, 1, 1
RF1, 2, 2
RF1, 3, 3
RF1, 4, 4
RF1, 6, 6
** Name: BC2 Type: Displacement/Rotation
*Boundary, op=NEW, load case=1
RF2, 2, 2
RF2, 4, 4
RF2, 5, 5
RF2, 6, 6
*Boundary, op=NEW, load case=2
RF2, 2, 2
RF2, 4, 4
RF2, 5, 5
RF2, 6, 6
** Name: BC3 Type: Displacement/Rotation
*Boundary, op=NEW, load case=1
CONTACT-POINT, 3, 3, -1.
*Boundary, op=NEW, load case=2
CONTACT-POINT, 3, 3, -1.
** 
** OUTPUT REQUESTS
** 
*Restart, write, frequency=0
** 
** FIELD OUTPUT: F-Output-1
** 
*Output, field, variable=PRESELECT
*End Step
** ----------------------------------------------------------------
** 
** STEP: Step-Stat
** 
*Step, name=Step-Stat, nlgeom=NO
*Static
1., 1., 1e-05, 1.
** 
** BOUNDARY CONDITIONS
** 
** Name: BC1 Type: Displacement/Rotation
*Boundary, op=NEW
RF1, 1, 1
RF1, 2, 2
RF1, 3, 3
RF1, 4, 4
RF1, 6, 6
** Name: BC2 Type: Displacement/Rotation
*Boundary, op=NEW
RF2, 2, 2
RF2, 4, 4
RF2, 5, 5
RF2, 6, 6
** Name: BC3 Type: Displacement/Rotation
*Boundary, op=NEW
CONTACT-POINT, 3, 3, -1.
** 
** OUTPUT REQUESTS
** 
*Restart, write, frequency=0
** 
** FIELD OUTPUT: F-Output-2
** 
*Output, field, variable=PRESELECT
** 
** HISTORY OUTPUT: H-Output-1
** 
*Output, history, variable=PRESELECT
*End Step
