1

   Abaqus 2022                                  Date 31-mar-2025   Time 18:52:51
   For use by NORGES TEKNISK NATURVITENSKAPELIGE UNIVERSITET under license from Dassault Systemes or its subsidiary.

                                                                                 
                                                                                 
 STEP    1     INCREMENT     1     STEP TIME    0.00    


                        S T E P       1     C A L C U L A T I O N   O F   E I G E N V A L U E S

                                            F O R   B U C K L I N G   P R E D I C T I O N



                                                                                          

     THE SUBSPACE ITERATION METHOD IS USED FOR THIS ANALYSIS
     NUMBER OF EIGENVALUES                      2
     MAXIMUM NUMBER OF ITERATIONS                    500
     NUMBER OF VECTORS IN ITERATION                    4
     THE BUCKLING MODE CONSTRAINTS 
      ARE DEFINED AS LOAD CASE 2
                              ONLY INITIAL STRESS EFFECTS ARE INCLUDED IN THE
                              STIFFNESS MATRIX

     THIS IS A LINEAR PERTURBATION STEP.
     ALL LOADS ARE DEFINED AS CHANGE IN LOAD TO THE REFERENCE STATE

     EXTRAPOLATION WILL NOT BE USED

     CHARACTERISTIC ELEMENT LENGTH      19.0    

     DETAILS REGARDING ACTUAL SOLUTION WAVEFRONT REQUESTED

     DETAILED OUTPUT OF DIAGNOSTICS TO DATABASE REQUESTED

     PRINT OF INCREMENT NUMBER, TIME, ETC., TO THE MESSAGE FILE EVERY     1  INCREMENTS
 
	SYMMETRIC DIRECT SPARSE SOLVER RUNNING ON
 	1 HOST:        1 MPI RANK  x 1 THREAD
 	NUMBER OF EQUATIONS:     23508
 	NUMBER OF RHS:           1
 	NUMBER OF FLOPS:         1.565e+09

     CHECK POINT   START OF SOLVER    

     CHECK POINT  END OF SOLVER       

       ELAPSED USER TIME (SEC)      =  0.20000    
       ELAPSED SYSTEM TIME (SEC)    =  0.10000    
       ELAPSED TOTAL CPU TIME (SEC) =  0.30000    
       ELAPSED WALLCLOCK TIME (SEC) =          0
 
     ITERATION 1
      1       8.168038e+02     
      2       -1.277414e+03    
      3       1.589273e+03     
      4       -2.812578e+03    
 
     NUMBER OF EIGENVALUES CONVERGED UPTO THIS ITERATION = 0
 
     ITERATION 2
      1       2.003729e+02     
      2       -2.934027e+02    
      3       4.312920e+02     
      4       4.141713e+03     
 
     NUMBER OF EIGENVALUES CONVERGED UPTO THIS ITERATION = 0
 
     ITERATION 3
      1       1.344933e+02     
      2       -1.883656e+02    
      3       2.421826e+02     
      4       1.060053e+05     
 
     NUMBER OF EIGENVALUES CONVERGED UPTO THIS ITERATION = 0
 
     ITERATION 4
      1       1.098438e+02     
      2       -1.456357e+02    
      3       1.780251e+02     
      4       -1.921628e+03    
 
     NUMBER OF EIGENVALUES CONVERGED UPTO THIS ITERATION = 0
 
     ITERATION 5
      1       9.879257e+01     
      2       -1.222837e+02    
      3       1.515803e+02     
      4       -1.052001e+03    
 
     NUMBER OF EIGENVALUES CONVERGED UPTO THIS ITERATION = 0
 
     ITERATION 6
      1       9.163230e+01     
      2       -1.075790e+02    
      3       1.434558e+02     
      4       -8.076983e+02    
 
     NUMBER OF EIGENVALUES CONVERGED UPTO THIS ITERATION = 0
 
     ITERATION 7
      1       8.564260e+01     
      2       -9.737699e+01    
      3       1.459662e+02     
      4       -7.086558e+02    
 
     NUMBER OF EIGENVALUES CONVERGED UPTO THIS ITERATION = 0
 
     ITERATION 8
      1       8.064184e+01     
      2       -8.979104e+01    
      3       1.545744e+02     
      4       -6.638415e+02    
 
     NUMBER OF EIGENVALUES CONVERGED UPTO THIS ITERATION = 0
 
     ITERATION 9
      1       7.661517e+01     
      2       -8.388409e+01    
      3       1.667849e+02     
      4       -6.430853e+02    
 
     NUMBER OF EIGENVALUES CONVERGED UPTO THIS ITERATION = 0
 
     ITERATION 10
      1       7.340023e+01     
      2       -7.915209e+01    
      3       1.812709e+02     
      4       -6.328740e+02    
 
     NUMBER OF EIGENVALUES CONVERGED UPTO THIS ITERATION = 0
 
     ITERATION 11
      1       7.080621e+01     
      2       -7.529848e+01    
      3       1.972999e+02     
      4       -6.260592e+02    
 
     NUMBER OF EIGENVALUES CONVERGED UPTO THIS ITERATION = 0
 
     ITERATION 12
      1       6.867044e+01     
      2       -7.213110e+01    
      3       2.144813e+02     
      4       -6.187534e+02    
 
     NUMBER OF EIGENVALUES CONVERGED UPTO THIS ITERATION = 0
 
     ITERATION 13
      1       6.686826e+01     
      2       -6.951410e+01    
      3       2.326538e+02     
      4       -6.091249e+02    
 
     NUMBER OF EIGENVALUES CONVERGED UPTO THIS ITERATION = 0
 
     ITERATION 14
      1       6.530861e+01     
      2       -6.734481e+01    
      3       2.518200e+02     
      4       -5.966975e+02    
 
     NUMBER OF EIGENVALUES CONVERGED UPTO THIS ITERATION = 0
 
     ITERATION 15
      1       6.392675e+01     
      2       -6.554213e+01    
      3       2.720977e+02     
      4       -5.817974e+02    
 
     NUMBER OF EIGENVALUES CONVERGED UPTO THIS ITERATION = 0
 
     ITERATION 16
      1       6.267757e+01     
      2       -6.404033e+01    
      3       2.936830e+02     
      4       -5.651145e+02    
 
     NUMBER OF EIGENVALUES CONVERGED UPTO THIS ITERATION = 0
 
     ITERATION 17
      1       6.153004e+01     
      2       -6.278515e+01    
      3       3.168229e+02     
      4       -5.474040e+02    
 
     NUMBER OF EIGENVALUES CONVERGED UPTO THIS ITERATION = 0
 
     ITERATION 18
      1       6.046306e+01     
      2       -6.173140e+01    
      3       3.417984e+02     
      4       -5.293226e+02    
 
     NUMBER OF EIGENVALUES CONVERGED UPTO THIS ITERATION = 0
 
     ITERATION 19
      1       5.946232e+01     
      2       -6.084107e+01    
      3       3.689156e+02     
      4       -5.113643e+02    
 
     NUMBER OF EIGENVALUES CONVERGED UPTO THIS ITERATION = 0
 
     ITERATION 20
      1       5.851809e+01     
      2       -6.008195e+01    
      3       3.985005e+02     
      4       -4.938563e+02    
 
     NUMBER OF EIGENVALUES CONVERGED UPTO THIS ITERATION = 0
 
     ITERATION 21
      1       5.762369e+01     
      2       -5.942664e+01    
      3       4.308965e+02     
      4       -4.769810e+02    
 
     NUMBER OF EIGENVALUES CONVERGED UPTO THIS ITERATION = 0
 
     ITERATION 22
      1       5.677440e+01     
      2       -5.885163e+01    
      3       -4.608063e+02    
      4       4.664597e+02     
 
     NUMBER OF EIGENVALUES CONVERGED UPTO THIS ITERATION = 0
 
     ITERATION 23
      1       5.596678e+01     
      2       -5.833670e+01    
      3       -4.453136e+02    
      4       5.055498e+02     
 
     NUMBER OF EIGENVALUES CONVERGED UPTO THIS ITERATION = 0
 
     ITERATION 24
      1       5.519818e+01     
      2       -5.786441e+01    
      3       -4.304217e+02    
      4       5.485134e+02     
 
     NUMBER OF EIGENVALUES CONVERGED UPTO THIS ITERATION = 0
 
     ITERATION 25
      1       5.446649e+01     
      2       -5.741972e+01    
      3       -4.160068e+02    
      4       5.956550e+02     
 
     NUMBER OF EIGENVALUES CONVERGED UPTO THIS ITERATION = 0
 
     ITERATION 26
      1       5.376992e+01     
      2       -5.698977e+01    
      3       -4.019197e+02    
      4       6.471961e+02     
 
     NUMBER OF EIGENVALUES CONVERGED UPTO THIS ITERATION = 0
 
     ITERATION 27
      1       5.310687e+01     
      2       -5.656368e+01    
      3       -3.880024e+02    
      4       7.032199e+02     
 
     NUMBER OF EIGENVALUES CONVERGED UPTO THIS ITERATION = 0
 
     ITERATION 28
      1       5.247591e+01     
      2       -5.613245e+01    
      3       -3.741052e+02    
      4       7.636109e+02     
 
     NUMBER OF EIGENVALUES CONVERGED UPTO THIS ITERATION = 0
 
     ITERATION 29
      1       5.187569e+01     
      2       -5.568898e+01    
      3       -3.601042e+02    
      4       8.280009e+02     
 
     NUMBER OF EIGENVALUES CONVERGED UPTO THIS ITERATION = 0
 
     ITERATION 30
      1       5.130493e+01     
      2       -5.522802e+01    
      3       -3.459177e+02    
      4       8.957476e+02     
 
     NUMBER OF EIGENVALUES CONVERGED UPTO THIS ITERATION = 0
 
     ITERATION 31
      1       5.076240e+01     
      2       -5.474621e+01    
      3       -3.315180e+02    
      4       9.659760e+02     
 
     NUMBER OF EIGENVALUES CONVERGED UPTO THIS ITERATION = 0
 
     ITERATION 32
      1       5.024694e+01     
      2       -5.424204e+01    
      3       -3.169377e+02    
      4       1.037704e+03     
 
     NUMBER OF EIGENVALUES CONVERGED UPTO THIS ITERATION = 0
 
     ITERATION 33
      1       4.975739e+01     
      2       -5.371583e+01    
      3       -3.022660e+02    
      4       1.110056e+03     
 
     NUMBER OF EIGENVALUES CONVERGED UPTO THIS ITERATION = 0
 
     ITERATION 34
      1       4.929263e+01     
      2       -5.316963e+01    
      3       -2.876369e+02    
      4       1.182525e+03     
 
     NUMBER OF EIGENVALUES CONVERGED UPTO THIS ITERATION = 0
 
     ITERATION 35
      1       4.885152e+01     
      2       -5.260696e+01    
      3       -2.732110e+02    
      4       1.255232e+03     
 
     NUMBER OF EIGENVALUES CONVERGED UPTO THIS ITERATION = 0
 
     ITERATION 36
      1       4.843298e+01     
      2       -5.203261e+01    
      3       -2.591548e+02    
      4       1.329107e+03     
 
     NUMBER OF EIGENVALUES CONVERGED UPTO THIS ITERATION = 0
 
     ITERATION 37
      1       4.803589e+01     
      2       -5.145224e+01    
      3       -2.456222e+02    
      4       1.405984e+03     
 
     NUMBER OF EIGENVALUES CONVERGED UPTO THIS ITERATION = 0
 
     ITERATION 38
      1       4.765915e+01     
      2       -5.087201e+01    
      3       -2.327410e+02    
      4       1.488632e+03     
 
     NUMBER OF EIGENVALUES CONVERGED UPTO THIS ITERATION = 0
 
     ITERATION 39
      1       4.730166e+01     
      2       -5.029816e+01    
      3       -2.206047e+02    
      4       1.580785e+03     
 
     NUMBER OF EIGENVALUES CONVERGED UPTO THIS ITERATION = 0
 
     ITERATION 40
      1       4.696233e+01     
      2       -4.973663e+01    
      3       -2.092716e+02    
      4       1.687286e+03     
 
     NUMBER OF EIGENVALUES CONVERGED UPTO THIS ITERATION = 0
 
     ITERATION 41
      1       4.664010e+01     
      2       -4.919272e+01    
      3       -1.987664e+02    
      4       1.814448e+03     
 
     NUMBER OF EIGENVALUES CONVERGED UPTO THIS ITERATION = 0
 
     ITERATION 42
      1       4.633394e+01     
      2       -4.867089e+01    
      3       -1.890859e+02    
      4       1.970794e+03     
 
     NUMBER OF EIGENVALUES CONVERGED UPTO THIS ITERATION = 0
 
     ITERATION 43
      1       4.604286e+01     
      2       -4.817454e+01    
      3       -1.802051e+02    
      4       2.168456e+03     
 
     NUMBER OF EIGENVALUES CONVERGED UPTO THIS ITERATION = 0
 
     ITERATION 44
      1       4.576594e+01     
      2       -4.770606e+01    
      3       -1.720834e+02    
      4       2.425836e+03     
 
     NUMBER OF EIGENVALUES CONVERGED UPTO THIS ITERATION = 0
 
     ITERATION 45
      1       4.550227e+01     
      2       -4.726677e+01    
      3       -1.646705e+02    
      4       2.772904e+03     
 
     NUMBER OF EIGENVALUES CONVERGED UPTO THIS ITERATION = 0
 
     ITERATION 46
      1       4.525106e+01     
      2       -4.685712e+01    
      3       -1.579106e+02    
      4       3.262758e+03     
 
     NUMBER OF EIGENVALUES CONVERGED UPTO THIS ITERATION = 0
 
     ITERATION 47
      1       4.501152e+01     
      2       -4.647675e+01    
      3       -1.517466e+02    
      4       4.000121e+03     
 
     NUMBER OF EIGENVALUES CONVERGED UPTO THIS ITERATION = 0
 
     ITERATION 48
      1       4.478297e+01     
      2       -4.612469e+01    
      3       -1.461222e+02    
      4       5.225218e+03     
 
     NUMBER OF EIGENVALUES CONVERGED UPTO THIS ITERATION = 0
 
     ITERATION 49
      1       4.456476e+01     
      2       -4.579953e+01    
      3       -1.409838e+02    
      4       7.639065e+03     
 
     NUMBER OF EIGENVALUES CONVERGED UPTO THIS ITERATION = 0
 
     ITERATION 50
      1       4.435628e+01     
      2       -4.549954e+01    
      3       -1.362814e+02    
      4       1.452880e+04     
 
     NUMBER OF EIGENVALUES CONVERGED UPTO THIS ITERATION = 0
 
     ITERATION 51
      1       4.415699e+01     
      2       -4.522283e+01    
      3       -1.319693e+02    
      4       1.853742e+05     
 
     NUMBER OF EIGENVALUES CONVERGED UPTO THIS ITERATION = 0
 
     ITERATION 52
      1       4.396639e+01     
      2       -4.496742e+01    
      3       -1.280062e+02    
      4       -1.690121e+04    
 
     NUMBER OF EIGENVALUES CONVERGED UPTO THIS ITERATION = 0
 
     ITERATION 53
      1       4.378399e+01     
      2       -4.473135e+01    
      3       -1.243550e+02    
      4       -8.022580e+03    
 
     NUMBER OF EIGENVALUES CONVERGED UPTO THIS ITERATION = 0
 
     ITERATION 54
      1       4.360938e+01     
      2       -4.451275e+01    
      3       -1.209829e+02    
      4       -5.239402e+03    
 
     NUMBER OF EIGENVALUES CONVERGED UPTO THIS ITERATION = 0
 
     ITERATION 55
      1       4.344214e+01     
      2       -4.430982e+01    
      3       -1.178606e+02    
      4       -3.881343e+03    
 
     NUMBER OF EIGENVALUES CONVERGED UPTO THIS ITERATION = 0
 
     ITERATION 56
      1       4.328189e+01     
      2       -4.412091e+01    
      3       -1.149625e+02    
      4       -3.078360e+03    
 
     NUMBER OF EIGENVALUES CONVERGED UPTO THIS ITERATION = 0
 
     ITERATION 57
      1       4.312828e+01     
      2       -4.394452e+01    
      3       -1.122659e+02    
      4       -2.548722e+03    
 
     NUMBER OF EIGENVALUES CONVERGED UPTO THIS ITERATION = 0
 
     ITERATION 58
      1       4.298098e+01     
      2       -4.377929e+01    
      3       -1.097508e+02    
      4       -2.173674e+03    
 
     NUMBER OF EIGENVALUES CONVERGED UPTO THIS ITERATION = 0
 
     ITERATION 59
      1       4.283968e+01     
      2       -4.362401e+01    
      3       -1.073997e+02    
      4       -1.894488e+03    
 
     NUMBER OF EIGENVALUES CONVERGED UPTO THIS ITERATION = 0
 
     ITERATION 60
      1       4.270410e+01     
      2       -4.347760e+01    
      3       -1.051972e+02    
      4       -1.678800e+03    
 
     NUMBER OF EIGENVALUES CONVERGED UPTO THIS ITERATION = 0
 
     ITERATION 61
      1       4.257394e+01     
      2       -4.333911e+01    
      3       -1.031295e+02    
      4       -1.507314e+03    
 
     NUMBER OF EIGENVALUES CONVERGED UPTO THIS ITERATION = 0
 
     ITERATION 62
      1       4.244896e+01     
      2       -4.320771e+01    
      3       -1.011846e+02    
      4       -1.367813e+03    
 
     NUMBER OF EIGENVALUES CONVERGED UPTO THIS ITERATION = 0
 
     ITERATION 63
      1       4.232890e+01     
      2       -4.308268e+01    
      3       -9.935191e+01    
      4       -1.252191e+03    
 
     NUMBER OF EIGENVALUES CONVERGED UPTO THIS ITERATION = 0
 
     ITERATION 64
      1       4.221355e+01     
      2       -4.296339e+01    
      3       -9.762195e+01    
      4       -1.154857e+03    
 
     NUMBER OF EIGENVALUES CONVERGED UPTO THIS ITERATION = 0
 
     ITERATION 65
      1       4.210268e+01     
      2       -4.284929e+01    
      3       -9.598631e+01    
      4       -1.071834e+03    
 
     NUMBER OF EIGENVALUES CONVERGED UPTO THIS ITERATION = 0
 
     ITERATION 66
      1       4.199608e+01     
      2       -4.273989e+01    
      3       -9.443751e+01    
      4       -1.000213e+03    
 
     NUMBER OF EIGENVALUES CONVERGED UPTO THIS ITERATION = 0
 
     ITERATION 67
      1       4.189355e+01     
      2       -4.263480e+01    
      3       -9.296886e+01    
      4       -9.378220e+02    
 
     NUMBER OF EIGENVALUES CONVERGED UPTO THIS ITERATION = 0
 
     ITERATION 68
      1       4.179493e+01     
      2       -4.253364e+01    
      3       -9.157434e+01    
      4       -8.830037e+02    
 
     NUMBER OF EIGENVALUES CONVERGED UPTO THIS ITERATION = 0
 
     ITERATION 69
      1       4.170002e+01     
      2       -4.243612e+01    
      3       -9.024859e+01    
      4       -8.344734e+02    
 
     NUMBER OF EIGENVALUES CONVERGED UPTO THIS ITERATION = 0
 
     ITERATION 70
      1       4.160866e+01     
      2       -4.234197e+01    
      3       -8.898675e+01    
      4       -7.912201e+02    
 
     NUMBER OF EIGENVALUES CONVERGED UPTO THIS ITERATION = 0
 
     ITERATION 71
      1       4.152070e+01     
      2       -4.225094e+01    
      3       -8.778442e+01    
      4       -7.524372e+02    
 
     NUMBER OF EIGENVALUES CONVERGED UPTO THIS ITERATION = 0
 
     ITERATION 72
      1       4.143599e+01     
      2       -4.216285e+01    
      3       -8.663764e+01    
      4       -7.174735e+02    
 
     NUMBER OF EIGENVALUES CONVERGED UPTO THIS ITERATION = 0
 
     ITERATION 73
      1       4.135438e+01     
      2       -4.207751e+01    
      3       -8.554281e+01    
      4       -6.857979e+02    
 
     NUMBER OF EIGENVALUES CONVERGED UPTO THIS ITERATION = 0
 
     ITERATION 74
      1       4.127575e+01     
      2       -4.199476e+01    
      3       -8.449663e+01    
      4       -6.569726e+02    
 
     NUMBER OF EIGENVALUES CONVERGED UPTO THIS ITERATION = 0
 
     ITERATION 75
      1       4.119996e+01     
      2       -4.191447e+01    
      3       -8.349612e+01    
      4       -6.306340e+02    
 
     NUMBER OF EIGENVALUES CONVERGED UPTO THIS ITERATION = 0
 
     ITERATION 76
      1       4.112689e+01     
      2       -4.183652e+01    
      3       -8.253854e+01    
      4       -6.064773e+02    
 
     NUMBER OF EIGENVALUES CONVERGED UPTO THIS ITERATION = 0
 
     ITERATION 77
      1       4.105644e+01     
      2       -4.176080e+01    
      3       -8.162136e+01    
      4       -5.842454e+02    
 
     NUMBER OF EIGENVALUES CONVERGED UPTO THIS ITERATION = 0
 
     ITERATION 78
      1       4.098848e+01     
      2       -4.168722e+01    
      3       -8.074228e+01    
      4       -5.637197e+02    
 
     NUMBER OF EIGENVALUES CONVERGED UPTO THIS ITERATION = 0
 
     ITERATION 79
      1       4.092293e+01     
      2       -4.161569e+01    
      3       -7.989918e+01    
      4       -5.447133e+02    
 
     NUMBER OF EIGENVALUES CONVERGED UPTO THIS ITERATION = 0
 
     ITERATION 80
      1       4.085967e+01     
      2       -4.154613e+01    
      3       -7.909010e+01    
      4       -5.270656e+02    
 
     NUMBER OF EIGENVALUES CONVERGED UPTO THIS ITERATION = 0
 
     ITERATION 81
      1       4.079862e+01     
      2       -4.147848e+01    
      3       -7.831321e+01    
      4       -5.106377e+02    
 
     NUMBER OF EIGENVALUES CONVERGED UPTO THIS ITERATION = 0
 
     ITERATION 82
      1       4.073969e+01     
      2       -4.141266e+01    
      3       -7.756685e+01    
      4       -4.953089e+02    
 
     NUMBER OF EIGENVALUES CONVERGED UPTO THIS ITERATION = 0
 
     ITERATION 83
      1       4.068278e+01     
      2       -4.134862e+01    
      3       -7.684945e+01    
      4       -4.809737e+02    
 
     NUMBER OF EIGENVALUES CONVERGED UPTO THIS ITERATION = 0
 
     ITERATION 84
      1       4.062783e+01     
      2       -4.128630e+01    
      3       -7.615957e+01    
      4       -4.675398e+02    
 
     NUMBER OF EIGENVALUES CONVERGED UPTO THIS ITERATION = 0
 
     ITERATION 85
      1       4.057476e+01     
      2       -4.122565e+01    
      3       -7.549586e+01    
      4       -4.549259e+02    
 
     NUMBER OF EIGENVALUES CONVERGED UPTO THIS ITERATION = 0
 
     ITERATION 86
      1       4.052349e+01     
      2       -4.116663e+01    
      3       -7.485706e+01    
      4       -4.430600e+02    
 
     NUMBER OF EIGENVALUES CONVERGED UPTO THIS ITERATION = 0
 
     ITERATION 87
      1       4.047394e+01     
      2       -4.110918e+01    
      3       -7.424200e+01    
      4       -4.318783e+02    
 
     NUMBER OF EIGENVALUES CONVERGED UPTO THIS ITERATION = 0
 
     ITERATION 88
      1       4.042607e+01     
      2       -4.105327e+01    
      3       -7.364959e+01    
      4       -4.213243e+02    
 
     NUMBER OF EIGENVALUES CONVERGED UPTO THIS ITERATION = 0
 
     ITERATION 89
      1       4.037980e+01     
      2       -4.099884e+01    
      3       -7.307880e+01    
      4       -4.113471e+02    
 
     NUMBER OF EIGENVALUES CONVERGED UPTO THIS ITERATION = 0
 
     ITERATION 90
      1       4.033507e+01     
      2       -4.094587e+01    
      3       -7.252867e+01    
      4       -4.019014e+02    
 
     NUMBER OF EIGENVALUES CONVERGED UPTO THIS ITERATION = 0
 
     ITERATION 91
      1       4.029182e+01     
      2       -4.089432e+01    
      3       -7.199830e+01    
      4       -3.929465e+02    
 
     NUMBER OF EIGENVALUES CONVERGED UPTO THIS ITERATION = 0
 
     ITERATION 92
      1       4.025000e+01     
      2       -4.084414e+01    
      3       -7.148684e+01    
      4       -3.844457e+02    
 
     NUMBER OF EIGENVALUES CONVERGED UPTO THIS ITERATION = 0
 
     ITERATION 93
      1       4.020956e+01     
      2       -4.079530e+01    
      3       -7.099350e+01    
      4       -3.763658e+02    
 
     NUMBER OF EIGENVALUES CONVERGED UPTO THIS ITERATION = 0
 
     ITERATION 94
      1       4.017044e+01     
      2       -4.074776e+01    
      3       -7.051752e+01    
      4       -3.686768e+02    
 
     NUMBER OF EIGENVALUES CONVERGED UPTO THIS ITERATION = 0
 
     ITERATION 95
      1       4.013260e+01     
      2       -4.070151e+01    
      3       -7.005820e+01    
      4       -3.613516e+02    
 
     NUMBER OF EIGENVALUES CONVERGED UPTO THIS ITERATION = 0
 
     ITERATION 96
      1       4.009599e+01     
      2       -4.065649e+01    
      3       -6.961487e+01    
      4       -3.543653e+02    
 
     NUMBER OF EIGENVALUES CONVERGED UPTO THIS ITERATION = 0
 
     ITERATION 97
      1       4.006057e+01     
      2       -4.061268e+01    
      3       -6.918691e+01    
      4       -3.476955e+02    
 
     NUMBER OF EIGENVALUES CONVERGED UPTO THIS ITERATION = 0
 
     ITERATION 98
      1       4.002629e+01     
      2       -4.057005e+01    
      3       -6.877372e+01    
      4       -3.413216e+02    
 
     NUMBER OF EIGENVALUES CONVERGED UPTO THIS ITERATION = 0
 
     ITERATION 99
      1       3.999312e+01     
      2       -4.052857e+01    
      3       -6.837474e+01    
      4       -3.352247e+02    
 
     NUMBER OF EIGENVALUES CONVERGED UPTO THIS ITERATION = 0
 
     ITERATION 100
      1       3.996101e+01     
      2       -4.048820e+01    
      3       -6.798944e+01    
      4       -3.293876e+02    
 
     NUMBER OF EIGENVALUES CONVERGED UPTO THIS ITERATION = 0
 
     ITERATION 101
      1       3.992993e+01     
      2       -4.044893e+01    
      3       -6.761731e+01    
      4       -3.237944e+02    
 
     NUMBER OF EIGENVALUES CONVERGED UPTO THIS ITERATION = 0
 
     ITERATION 102
      1       3.989984e+01     
      2       -4.041071e+01    
      3       -6.725788e+01    
      4       -3.184306e+02    
 
     NUMBER OF EIGENVALUES CONVERGED UPTO THIS ITERATION = 0
 
     ITERATION 103
      1       3.987071e+01     
      2       -4.037353e+01    
      3       -6.691070e+01    
      4       -3.132827e+02    
 
     NUMBER OF EIGENVALUES CONVERGED UPTO THIS ITERATION = 0
 
     ITERATION 104
      1       3.984250e+01     
      2       -4.033736e+01    
      3       -6.657533e+01    
      4       -3.083385e+02    
 
     NUMBER OF EIGENVALUES CONVERGED UPTO THIS ITERATION = 0
 
     ITERATION 105
      1       3.981519e+01     
      2       -4.030217e+01    
      3       -6.625137e+01    
      4       -3.035863e+02    
 
     NUMBER OF EIGENVALUES CONVERGED UPTO THIS ITERATION = 0
 
     ITERATION 106
      1       3.978874e+01     
      2       -4.026793e+01    
      3       -6.593842e+01    
      4       -2.990157e+02    
 
     NUMBER OF EIGENVALUES CONVERGED UPTO THIS ITERATION = 0
 
     ITERATION 107
      1       3.976312e+01     
      2       -4.023462e+01    
      3       -6.563613e+01    
      4       -2.946169e+02    
 
     NUMBER OF EIGENVALUES CONVERGED UPTO THIS ITERATION = 0
 
     ITERATION 108
      1       3.973831e+01     
      2       -4.020221e+01    
      3       -6.534414e+01    
      4       -2.903807e+02    
 
     NUMBER OF EIGENVALUES CONVERGED UPTO THIS ITERATION = 0
 
     ITERATION 109
      1       3.971427e+01     
      2       -4.017069e+01    
      3       -6.506211e+01    
      4       -2.862987e+02    
 
     NUMBER OF EIGENVALUES CONVERGED UPTO THIS ITERATION = 0
 
     ITERATION 110
      1       3.969099e+01     
      2       -4.014002e+01    
      3       -6.478972e+01    
      4       -2.823631e+02    
 
     NUMBER OF EIGENVALUES CONVERGED UPTO THIS ITERATION = 0
 
     ITERATION 111
      1       3.966844e+01     
      2       -4.011018e+01    
      3       -6.452668e+01    
      4       -2.785665e+02    
 
     NUMBER OF EIGENVALUES CONVERGED UPTO THIS ITERATION = 0
 
     ITERATION 112
      1       3.964659e+01     
      2       -4.008116e+01    
      3       -6.427268e+01    
      4       -2.749022e+02    
 
     NUMBER OF EIGENVALUES CONVERGED UPTO THIS ITERATION = 0
 
     ITERATION 113
      1       3.962541e+01     
      2       -4.005292e+01    
      3       -6.402746e+01    
      4       -2.713637e+02    
 
     NUMBER OF EIGENVALUES CONVERGED UPTO THIS ITERATION = 0
 
     ITERATION 114
      1       3.960490e+01     
      2       -4.002545e+01    
      3       -6.379075e+01    
      4       -2.679451e+02    
 
     NUMBER OF EIGENVALUES CONVERGED UPTO THIS ITERATION = 0
 
     ITERATION 115
      1       3.958502e+01     
      2       -3.999873e+01    
      3       -6.356229e+01    
      4       -2.646409e+02    
 
     NUMBER OF EIGENVALUES CONVERGED UPTO THIS ITERATION = 0
 
     ITERATION 116
      1       3.956576e+01     
      2       -3.997273e+01    
      3       -6.334184e+01    
      4       -2.614459e+02    
 
     NUMBER OF EIGENVALUES CONVERGED UPTO THIS ITERATION = 0
 
     ITERATION 117
      1       3.954709e+01     
      2       -3.994744e+01    
      3       -6.312917e+01    
      4       -2.583553e+02    
 
     NUMBER OF EIGENVALUES CONVERGED UPTO THIS ITERATION = 0
 
     ITERATION 118
      1       3.952900e+01     
      2       -3.992283e+01    
      3       -6.292406e+01    
      4       -2.553643e+02    
 
     NUMBER OF EIGENVALUES CONVERGED UPTO THIS ITERATION = 0
 
     ITERATION 119
      1       3.951147e+01     
      2       -3.989890e+01    
      3       -6.272629e+01    
      4       -2.524689e+02    
 
     NUMBER OF EIGENVALUES CONVERGED UPTO THIS ITERATION = 0
 
     ITERATION 120
      1       3.949448e+01     
      2       -3.987561e+01    
      3       -6.253566e+01    
      4       -2.496650e+02    
 
     NUMBER OF EIGENVALUES CONVERGED UPTO THIS ITERATION = 0
 
     ITERATION 121
      1       3.947801e+01     
      2       -3.985295e+01    
      3       -6.235198e+01    
      4       -2.469487e+02    
 
     NUMBER OF EIGENVALUES CONVERGED UPTO THIS ITERATION = 0
 
     ITERATION 122
      1       3.946204e+01     
      2       -3.983090e+01    
      3       -6.217504e+01    
      4       -2.443167e+02    
 
     NUMBER OF EIGENVALUES CONVERGED UPTO THIS ITERATION = 0
 
     ITERATION 123
      1       3.944657e+01     
      2       -3.980945e+01    
      3       -6.200468e+01    
      4       -2.417654e+02    
 
     NUMBER OF EIGENVALUES CONVERGED UPTO THIS ITERATION = 0
 
     ITERATION 124
      1       3.943157e+01     
      2       -3.978859e+01    
      3       -6.184072e+01    
      4       -2.392919e+02    
 
     NUMBER OF EIGENVALUES CONVERGED UPTO THIS ITERATION = 0
 
     ITERATION 125
      1       3.941703e+01     
      2       -3.976828e+01    
      3       -6.168299e+01    
      4       -2.368931e+02    
 
     NUMBER OF EIGENVALUES CONVERGED UPTO THIS ITERATION = 0
 
     ITERATION 126
      1       3.940293e+01     
      2       -3.974852e+01    
      3       -6.153133e+01    
      4       -2.345663e+02    
 
     NUMBER OF EIGENVALUES CONVERGED UPTO THIS ITERATION = 0
 
     ITERATION 127
      1       3.938926e+01     
      2       -3.972929e+01    
      3       -6.138557e+01    
      4       -2.323089e+02    
 
     NUMBER OF EIGENVALUES CONVERGED UPTO THIS ITERATION = 0
 
     ITERATION 128
      1       3.937601e+01     
      2       -3.971058e+01    
      3       -6.124558e+01    
      4       -2.301183e+02    
 
     NUMBER OF EIGENVALUES CONVERGED UPTO THIS ITERATION = 0
 
     ITERATION 129
      1       3.936317e+01     
      2       -3.969237e+01    
      3       -6.111121e+01    
      4       -2.279923e+02    
 
     NUMBER OF EIGENVALUES CONVERGED UPTO THIS ITERATION = 0
 
     ITERATION 130
      1       3.935072e+01     
      2       -3.967466e+01    
      3       -6.098231e+01    
      4       -2.259287e+02    
 
     NUMBER OF EIGENVALUES CONVERGED UPTO THIS ITERATION = 0
 
     ITERATION 131
      1       3.933864e+01     
      2       -3.965741e+01    
      3       -6.085875e+01    
      4       -2.239253e+02    
 
     NUMBER OF EIGENVALUES CONVERGED UPTO THIS ITERATION = 0
 
     ITERATION 132
      1       3.932693e+01     
      2       -3.964063e+01    
      3       -6.074039e+01    
      4       -2.219803e+02    
 
     NUMBER OF EIGENVALUES CONVERGED UPTO THIS ITERATION = 0
 
     ITERATION 133
      1       3.931558e+01     
      2       -3.962429e+01    
      3       -6.062712e+01    
      4       -2.200918e+02    
 
     NUMBER OF EIGENVALUES CONVERGED UPTO THIS ITERATION = 0
 
     ITERATION 134
      1       3.930458e+01     
      2       -3.960839e+01    
      3       -6.051880e+01    
      4       -2.182581e+02    
 
     NUMBER OF EIGENVALUES CONVERGED UPTO THIS ITERATION = 0
 
     ITERATION 135
      1       3.929390e+01     
      2       -3.959292e+01    
      3       -6.041532e+01    
      4       -2.164774e+02    
 
     NUMBER OF EIGENVALUES CONVERGED UPTO THIS ITERATION = 0
 
     ITERATION 136
      1       3.928356e+01     
      2       -3.957785e+01    
      3       -6.031657e+01    
      4       -2.147484e+02    
 
     NUMBER OF EIGENVALUES CONVERGED UPTO THIS ITERATION = 0
 
     ITERATION 137
      1       3.927352e+01     
      2       -3.956319e+01    
      3       -6.022241e+01    
      4       -2.130694e+02    
 
     NUMBER OF EIGENVALUES CONVERGED UPTO THIS ITERATION = 0
 
     ITERATION 138
      1       3.926379e+01     
      2       -3.954892e+01    
      3       -6.013276e+01    
      4       -2.114392e+02    
 
     NUMBER OF EIGENVALUES CONVERGED UPTO THIS ITERATION = 0
 
     ITERATION 139
      1       3.925435e+01     
      2       -3.953502e+01    
      3       -6.004749e+01    
      4       -2.098564e+02    
 
     NUMBER OF EIGENVALUES CONVERGED UPTO THIS ITERATION = 0
 
     ITERATION 140
      1       3.924520e+01     
      2       -3.952149e+01    
      3       -5.996650e+01    
      4       -2.083198e+02    
 
     NUMBER OF EIGENVALUES CONVERGED UPTO THIS ITERATION = 0
 
     ITERATION 141
      1       3.923633e+01     
      2       -3.950832e+01    
      3       -5.988970e+01    
      4       -2.068284e+02    
 
     NUMBER OF EIGENVALUES CONVERGED UPTO THIS ITERATION = 0
 
     ITERATION 142
      1       3.922773e+01     
      2       -3.949549e+01    
      3       -5.981697e+01    
      4       -2.053808e+02    
 
     NUMBER OF EIGENVALUES CONVERGED UPTO THIS ITERATION = 0
 
     ITERATION 143
      1       3.921938e+01     
      2       -3.948300e+01    
      3       -5.974823e+01    
      4       -2.039763e+02    
 
     NUMBER OF EIGENVALUES CONVERGED UPTO THIS ITERATION = 0
 
     ITERATION 144
      1       3.921129e+01     
      2       -3.947085e+01    
      3       -5.968337e+01    
      4       -2.026138e+02    
 
     NUMBER OF EIGENVALUES CONVERGED UPTO THIS ITERATION = 0
 
     ITERATION 145
      1       3.920344e+01     
      2       -3.945901e+01    
      3       -5.962230e+01    
      4       -2.012924e+02    
 
     NUMBER OF EIGENVALUES CONVERGED UPTO THIS ITERATION = 0
 
     ITERATION 146
      1       3.919583e+01     
      2       -3.944748e+01    
      3       -5.956493e+01    
      4       -2.000113e+02    
 
     NUMBER OF EIGENVALUES CONVERGED UPTO THIS ITERATION = 0
 
     ITERATION 147
      1       3.918845e+01     
      2       -3.943625e+01    
      3       -5.951116e+01    
      4       -1.987697e+02    
 
     NUMBER OF EIGENVALUES CONVERGED UPTO THIS ITERATION = 0
 
     ITERATION 148
      1       3.918129e+01     
      2       -3.942531e+01    
      3       -5.946091e+01    
      4       -1.975669e+02    
 
     NUMBER OF EIGENVALUES CONVERGED UPTO THIS ITERATION = 0
 
     ITERATION 149
      1       3.917435e+01     
      2       -3.941466e+01    
      3       -5.941409e+01    
      4       -1.964022e+02    
 
     NUMBER OF EIGENVALUES CONVERGED UPTO THIS ITERATION = 0
 
     ITERATION 150
      1       3.916761e+01     
      2       -3.940429e+01    
      3       -5.937060e+01    
      4       -1.952749e+02    
 
     NUMBER OF EIGENVALUES CONVERGED UPTO THIS ITERATION = 0
 
     ITERATION 151
      1       3.916108e+01     
      2       -3.939419e+01    
      3       -5.933036e+01    
      4       -1.941846e+02    
 
     NUMBER OF EIGENVALUES CONVERGED UPTO THIS ITERATION = 0
 
     ITERATION 152
      1       3.915475e+01     
      2       -3.938435e+01    
      3       -5.929329e+01    
      4       -1.931307e+02    
 
     NUMBER OF EIGENVALUES CONVERGED UPTO THIS ITERATION = 0
 
     ITERATION 153
      1       3.914861e+01     
      2       -3.937477e+01    
      3       -5.925929e+01    
      4       -1.921127e+02    
 
     NUMBER OF EIGENVALUES CONVERGED UPTO THIS ITERATION = 0
 
     ITERATION 154
      1       3.914265e+01     
      2       -3.936543e+01    
      3       -5.922828e+01    
      4       -1.911301e+02    
 
     NUMBER OF EIGENVALUES CONVERGED UPTO THIS ITERATION = 0
 
     ITERATION 155
      1       3.913687e+01     
      2       -3.935634e+01    
      3       -5.920018e+01    
      4       -1.901826e+02    
 
     NUMBER OF EIGENVALUES CONVERGED UPTO THIS ITERATION = 0
 
     ITERATION 156
      1       3.913127e+01     
      2       -3.934748e+01    
      3       -5.917491e+01    
      4       -1.892698e+02    
 
     NUMBER OF EIGENVALUES CONVERGED UPTO THIS ITERATION = 0
 
     ITERATION 157
      1       3.912583e+01     
      2       -3.933886e+01    
      3       -5.915237e+01    
      4       -1.883913e+02    
 
     NUMBER OF EIGENVALUES CONVERGED UPTO THIS ITERATION = 0
 
     ITERATION 158
      1       3.912056e+01     
      2       -3.933045e+01    
      3       -5.913249e+01    
      4       -1.875471e+02    
 
     NUMBER OF EIGENVALUES CONVERGED UPTO THIS ITERATION = 0
 
     ITERATION 159
      1       3.911545e+01     
      2       -3.932226e+01    
      3       -5.911517e+01    
      4       -1.867367e+02    
 
     NUMBER OF EIGENVALUES CONVERGED UPTO THIS ITERATION = 0
 
     ITERATION 160
      1       3.911049e+01     
      2       -3.931428e+01    
      3       -5.910034e+01    
      4       -1.859600e+02    
 
     NUMBER OF EIGENVALUES CONVERGED UPTO THIS ITERATION = 0
 
     ITERATION 161
      1       3.910568e+01     
      2       -3.930651e+01    
      3       -5.908791e+01    
      4       -1.852169e+02    
 
     NUMBER OF EIGENVALUES CONVERGED UPTO THIS ITERATION = 0
 
     ITERATION 162
      1       3.910101e+01     
      2       -3.929894e+01    
      3       -5.907780e+01    
      4       -1.845073e+02    
 
     NUMBER OF EIGENVALUES CONVERGED UPTO THIS ITERATION = 0
 
     ITERATION 163
      1       3.909648e+01     
      2       -3.929156e+01    
      3       -5.906992e+01    
      4       -1.838311e+02    
 
     NUMBER OF EIGENVALUES CONVERGED UPTO THIS ITERATION = 0
 
     ITERATION 164
      1       3.909210e+01     
      2       -3.928437e+01    
      3       -5.906417e+01    
      4       -1.831882e+02    
 
     NUMBER OF EIGENVALUES CONVERGED UPTO THIS ITERATION = 0
 
     ITERATION 165
      1       3.908784e+01     
      2       -3.927737e+01    
      3       -5.906049e+01    
      4       -1.825787e+02    
 
     NUMBER OF EIGENVALUES CONVERGED UPTO THIS ITERATION = 0
 
     ITERATION 166
      1       3.908371e+01     
      2       -3.927054e+01    
      3       -5.905878e+01    
      4       -1.820026e+02    
 
     NUMBER OF EIGENVALUES CONVERGED UPTO THIS ITERATION = 0
 
     ITERATION 167
      1       3.907970e+01     
      2       -3.926389e+01    
      3       -5.905894e+01    
      4       -1.814601e+02    
 
     NUMBER OF EIGENVALUES CONVERGED UPTO THIS ITERATION = 0
 
     ITERATION 168
      1       3.907582e+01     
      2       -3.925742e+01    
      3       -5.906091e+01    
      4       -1.809512e+02    
 
     NUMBER OF EIGENVALUES CONVERGED UPTO THIS ITERATION = 0
 
     ITERATION 169
      1       3.907205e+01     
      2       -3.925110e+01    
      3       -5.906457e+01    
      4       -1.804761e+02    
 
     NUMBER OF EIGENVALUES CONVERGED UPTO THIS ITERATION = 0
 
     ITERATION 170
      1       3.906840e+01     
      2       -3.924495e+01    
      3       -5.906985e+01    
      4       -1.800351e+02    
 
     NUMBER OF EIGENVALUES CONVERGED UPTO THIS ITERATION = 0
 
     ITERATION 171
      1       3.906485e+01     
      2       -3.923896e+01    
      3       -5.907666e+01    
      4       -1.796284e+02    
 
     NUMBER OF EIGENVALUES CONVERGED UPTO THIS ITERATION = 0
 
     ITERATION 172
      1       3.906141e+01     
      2       -3.923312e+01    
      3       -5.908489e+01    
      4       -1.792564e+02    
 
     NUMBER OF EIGENVALUES CONVERGED UPTO THIS ITERATION = 0
 
     ITERATION 173
      1       3.905808e+01     
      2       -3.922743e+01    
      3       -5.909447e+01    
      4       -1.789193e+02    
 
     NUMBER OF EIGENVALUES CONVERGED UPTO THIS ITERATION = 0
 
     ITERATION 174
      1       3.905484e+01     
      2       -3.922188e+01    
      3       -5.910529e+01    
      4       -1.786175e+02    
 
     NUMBER OF EIGENVALUES CONVERGED UPTO THIS ITERATION = 0
 
     ITERATION 175
      1       3.905170e+01     
      2       -3.921648e+01    
      3       -5.911725e+01    
      4       -1.783516e+02    
 
     NUMBER OF EIGENVALUES CONVERGED UPTO THIS ITERATION = 0
 
     ITERATION 176
      1       3.904866e+01     
      2       -3.921121e+01    
      3       -5.913027e+01    
      4       -1.781220e+02    
 
     NUMBER OF EIGENVALUES CONVERGED UPTO THIS ITERATION = 0
 
     ITERATION 177
      1       3.904571e+01     
      2       -3.920608e+01    
      3       -5.914425e+01    
      4       -1.779293e+02    
 
     NUMBER OF EIGENVALUES CONVERGED UPTO THIS ITERATION = 0
 
     ITERATION 178
      1       3.904284e+01     
      2       -3.920108e+01    
      3       -5.915908e+01    
      4       -1.777740e+02    
 
     NUMBER OF EIGENVALUES CONVERGED UPTO THIS ITERATION = 0
 
     ITERATION 179
      1       3.904007e+01     
      2       -3.919621e+01    
      3       -5.917468e+01    
      4       -1.776568e+02    
 
     NUMBER OF EIGENVALUES CONVERGED UPTO THIS ITERATION = 0
 
     ITERATION 180
      1       3.903737e+01     
      2       -3.919146e+01    
      3       -5.919093e+01    
      4       -1.775784e+02    
 
     NUMBER OF EIGENVALUES CONVERGED UPTO THIS ITERATION = 0
 
     ITERATION 181
      1       3.903476e+01     
      2       -3.918684e+01    
      3       -5.920774e+01    
      4       -1.775396e+02    
 
     NUMBER OF EIGENVALUES CONVERGED UPTO THIS ITERATION = 0
 
     ITERATION 182
      1       3.903222e+01     
      2       -3.918233e+01    
      3       -5.922500e+01    
      4       -1.775412e+02    
 
     NUMBER OF EIGENVALUES CONVERGED UPTO THIS ITERATION = 0
 
     ITERATION 183
      1       3.902977e+01     
      2       -3.917794e+01    
      3       -5.924262e+01    
      4       -1.775841e+02    
 
     NUMBER OF EIGENVALUES CONVERGED UPTO THIS ITERATION = 0
 
     ITERATION 184
      1       3.902738e+01     
      2       -3.917366e+01    
      3       -5.926048e+01    
      4       -1.776693e+02    
 
     NUMBER OF EIGENVALUES CONVERGED UPTO THIS ITERATION = 0
 
     ITERATION 185
      1       3.902507e+01     
      2       -3.916949e+01    
      3       -5.927850e+01    
      4       -1.777978e+02    
 
     NUMBER OF EIGENVALUES CONVERGED UPTO THIS ITERATION = 0
 
     ITERATION 186
      1       3.902282e+01     
      2       -3.916542e+01    
      3       -5.929655e+01    
      4       -1.779707e+02    
 
     NUMBER OF EIGENVALUES CONVERGED UPTO THIS ITERATION = 0
 
     ITERATION 187
      1       3.902065e+01     
      2       -3.916146e+01    
      3       -5.931453e+01    
      4       -1.781892e+02    
 
     NUMBER OF EIGENVALUES CONVERGED UPTO THIS ITERATION = 0
 
     ITERATION 188
      1       3.901853e+01     
      2       -3.915760e+01    
      3       -5.933235e+01    
      4       -1.784546e+02    
 
     NUMBER OF EIGENVALUES CONVERGED UPTO THIS ITERATION = 0
 
     ITERATION 189
      1       3.901649e+01     
      2       -3.915384e+01    
      3       -5.934989e+01    
      4       -1.787683e+02    
 
     NUMBER OF EIGENVALUES CONVERGED UPTO THIS ITERATION = 0
 
     ITERATION 190
      1       3.901450e+01     
      2       -3.915018e+01    
      3       -5.936705e+01    
      4       -1.791317e+02    
 
     NUMBER OF EIGENVALUES CONVERGED UPTO THIS ITERATION = 0
 
     ITERATION 191
      1       3.901257e+01     
      2       -3.914661e+01    
      3       -5.938372e+01    
      4       -1.795463e+02    
 
     NUMBER OF EIGENVALUES CONVERGED UPTO THIS ITERATION = 0
 
     ITERATION 192
      1       3.901070e+01     
      2       -3.914313e+01    
      3       -5.939979e+01    
      4       -1.800139e+02    
 
     NUMBER OF EIGENVALUES CONVERGED UPTO THIS ITERATION = 0
 
     ITERATION 193
      1       3.900889e+01     
      2       -3.913974e+01    
      3       -5.941517e+01    
      4       -1.805362e+02    
 
     NUMBER OF EIGENVALUES CONVERGED UPTO THIS ITERATION = 0
 
     ITERATION 194
      1       3.900713e+01     
      2       -3.913644e+01    
      3       -5.942974e+01    
      4       -1.811152e+02    
 
     NUMBER OF EIGENVALUES CONVERGED UPTO THIS ITERATION = 0
 
     ITERATION 195
      1       3.900543e+01     
      2       -3.913322e+01    
      3       -5.944340e+01    
      4       -1.817528e+02    
 
     NUMBER OF EIGENVALUES CONVERGED UPTO THIS ITERATION = 0
 
     ITERATION 196
      1       3.900377e+01     
      2       -3.913009e+01    
      3       -5.945605e+01    
      4       -1.824512e+02    
 
     NUMBER OF EIGENVALUES CONVERGED UPTO THIS ITERATION = 0
 
     ITERATION 197
      1       3.900217e+01     
      2       -3.912704e+01    
      3       -5.946758e+01    
      4       -1.832129e+02    
 
     NUMBER OF EIGENVALUES CONVERGED UPTO THIS ITERATION = 0
 
     ITERATION 198
      1       3.900061e+01     
      2       -3.912406e+01    
      3       -5.947790e+01    
      4       -1.840402e+02    
 
     NUMBER OF EIGENVALUES CONVERGED UPTO THIS ITERATION = 0
 
     ITERATION 199
      1       3.899910e+01     
      2       -3.912116e+01    
      3       -5.948690e+01    
      4       -1.849358e+02    
 
     NUMBER OF EIGENVALUES CONVERGED UPTO THIS ITERATION = 0
 
     ITERATION 200
      1       3.899763e+01     
      2       -3.911834e+01    
      3       -5.949450e+01    
      4       -1.859027e+02    
 
     NUMBER OF EIGENVALUES CONVERGED UPTO THIS ITERATION = 0
 
     ITERATION 201
      1       3.899621e+01     
      2       -3.911559e+01    
      3       -5.950058e+01    
      4       -1.869438e+02    
 
     NUMBER OF EIGENVALUES CONVERGED UPTO THIS ITERATION = 0
 
     ITERATION 202
      1       3.899483e+01     
      2       -3.911291e+01    
      3       -5.950506e+01    
      4       -1.880625e+02    
 
     NUMBER OF EIGENVALUES CONVERGED UPTO THIS ITERATION = 0
 
     ITERATION 203
      1       3.899350e+01     
      2       -3.911029e+01    
      3       -5.950785e+01    
      4       -1.892623e+02    
 
     NUMBER OF EIGENVALUES CONVERGED UPTO THIS ITERATION = 0
 
     ITERATION 204
      1       3.899220e+01     
      2       -3.910775e+01    
      3       -5.950885e+01    
      4       -1.905470e+02    
 
     NUMBER OF EIGENVALUES CONVERGED UPTO THIS ITERATION = 0
 
     ITERATION 205
      1       3.899094e+01     
      2       -3.910527e+01    
      3       -5.950799e+01    
      4       -1.919206e+02    
 
     NUMBER OF EIGENVALUES CONVERGED UPTO THIS ITERATION = 0
 
     ITERATION 206
      1       3.898972e+01     
      2       -3.910286e+01    
      3       -5.950517e+01    
      4       -1.933877e+02    
 
     NUMBER OF EIGENVALUES CONVERGED UPTO THIS ITERATION = 0
 
     ITERATION 207
      1       3.898854e+01     
      2       -3.910051e+01    
      3       -5.950032e+01    
      4       -1.949529e+02    
 
     NUMBER OF EIGENVALUES CONVERGED UPTO THIS ITERATION = 0
 
     ITERATION 208
      1       3.898739e+01     
      2       -3.909822e+01    
      3       -5.949337e+01    
      4       -1.966213e+02    
 
     NUMBER OF EIGENVALUES CONVERGED UPTO THIS ITERATION = 0
 
     ITERATION 209
      1       3.898627e+01     
      2       -3.909598e+01    
      3       -5.948423e+01    
      4       -1.983985e+02    
 
     NUMBER OF EIGENVALUES CONVERGED UPTO THIS ITERATION = 0
 
     ITERATION 210
      1       3.898519e+01     
      2       -3.909381e+01    
      3       -5.947284e+01    
      4       -2.002905e+02    
 
     NUMBER OF EIGENVALUES CONVERGED UPTO THIS ITERATION = 0
 
     ITERATION 211
      1       3.898414e+01     
      2       -3.909169e+01    
      3       -5.945913e+01    
      4       -2.023038e+02    
 
     NUMBER OF EIGENVALUES CONVERGED UPTO THIS ITERATION = 0
 
     ITERATION 212
      1       3.898313e+01     
      2       -3.908963e+01    
      3       -5.944305e+01    
      4       -2.044455e+02    
 
     NUMBER OF EIGENVALUES CONVERGED UPTO THIS ITERATION = 0
 
     ITERATION 213
      1       3.898214e+01     
      2       -3.908762e+01    
      3       -5.942452e+01    
      4       -2.067233e+02    
 
     NUMBER OF EIGENVALUES CONVERGED UPTO THIS ITERATION = 0
 
     ITERATION 214
      1       3.898118e+01     
      2       -3.908566e+01    
      3       -5.940351e+01    
      4       -2.091454e+02    
 
     NUMBER OF EIGENVALUES CONVERGED UPTO THIS ITERATION = 0
 
     ITERATION 215
      1       3.898026e+01     
      2       -3.908376e+01    
      3       -5.937996e+01    
      4       -2.117212e+02    
 
     NUMBER OF EIGENVALUES CONVERGED UPTO THIS ITERATION = 0
 
     ITERATION 216
      1       3.897936e+01     
      2       -3.908190e+01    
      3       -5.935383e+01    
      4       -2.144605e+02    
 
     NUMBER OF EIGENVALUES CONVERGED UPTO THIS ITERATION = 0
 
     ITERATION 217
      1       3.897848e+01     
      2       -3.908009e+01    
      3       -5.932507e+01    
      4       -2.173743e+02    
 
     NUMBER OF EIGENVALUES CONVERGED UPTO THIS ITERATION = 0
 
     ITERATION 218
      1       3.897764e+01     
      2       -3.907833e+01    
      3       -5.929366e+01    
      4       -2.204747e+02    
 
     NUMBER OF EIGENVALUES CONVERGED UPTO THIS ITERATION = 0
 
     ITERATION 219
      1       3.897681e+01     
      2       -3.907662e+01    
      3       -5.925955e+01    
      4       -2.237748e+02    
 
     NUMBER OF EIGENVALUES CONVERGED UPTO THIS ITERATION = 0
 
     ITERATION 220
      1       3.897602e+01     
      2       -3.907495e+01    
      3       -5.922273e+01    
      4       -2.272894e+02    
 
     NUMBER OF EIGENVALUES CONVERGED UPTO THIS ITERATION = 0
 
     ITERATION 221
      1       3.897524e+01     
      2       -3.907332e+01    
      3       -5.918317e+01    
      4       -2.310345e+02    
 
     NUMBER OF EIGENVALUES CONVERGED UPTO THIS ITERATION = 0
 
     ITERATION 222
      1       3.897449e+01     
      2       -3.907174e+01    
      3       -5.914085e+01    
      4       -2.350281e+02    
 
     NUMBER OF EIGENVALUES CONVERGED UPTO THIS ITERATION = 0
 
     ITERATION 223
      1       3.897377e+01     
      2       -3.907019e+01    
      3       -5.909576e+01    
      4       -2.392901e+02    
 
     NUMBER OF EIGENVALUES CONVERGED UPTO THIS ITERATION = 0
 
     ITERATION 224
      1       3.897306e+01     
      2       -3.906869e+01    
      3       -5.904790e+01    
      4       -2.438426e+02    
 
     NUMBER OF EIGENVALUES CONVERGED UPTO THIS ITERATION = 0
 
     ITERATION 225
      1       3.897237e+01     
      2       -3.906723e+01    
      3       -5.899726e+01    
      4       -2.487104e+02    
 
     NUMBER OF EIGENVALUES CONVERGED UPTO THIS ITERATION = 0
 
     ITERATION 226
      1       3.897171e+01     
      2       -3.906580e+01    
      3       -5.894384e+01    
      4       -2.539215e+02    
 
     NUMBER OF EIGENVALUES CONVERGED UPTO THIS ITERATION = 0
 
     ITERATION 227
      1       3.897107e+01     
      2       -3.906442e+01    
      3       -5.888764e+01    
      4       -2.595070e+02    
 
     NUMBER OF EIGENVALUES CONVERGED UPTO THIS ITERATION = 0
 
     ITERATION 228
      1       3.897044e+01     
      2       -3.906306e+01    
      3       -5.882868e+01    
      4       -2.655025e+02    
 
     NUMBER OF EIGENVALUES CONVERGED UPTO THIS ITERATION = 0
 
     ITERATION 229
      1       3.896983e+01     
      2       -3.906175e+01    
      3       -5.876696e+01    
      4       -2.719479e+02    
 
     NUMBER OF EIGENVALUES CONVERGED UPTO THIS ITERATION = 0
 
     ITERATION 230
      1       3.896925e+01     
      2       -3.906047e+01    
      3       -5.870251e+01    
      4       -2.788889e+02    
 
     NUMBER OF EIGENVALUES CONVERGED UPTO THIS ITERATION = 0
 
     ITERATION 231
      1       3.896868e+01     
      2       -3.905922e+01    
      3       -5.863534e+01    
      4       -2.863778e+02    
 
     NUMBER OF EIGENVALUES CONVERGED UPTO THIS ITERATION = 0
 
     ITERATION 232
      1       3.896812e+01     
      2       -3.905800e+01    
      3       -5.856549e+01    
      4       -2.944745e+02    
 
     NUMBER OF EIGENVALUES CONVERGED UPTO THIS ITERATION = 0
 
     ITERATION 233
      1       3.896759e+01     
      2       -3.905682e+01    
      3       -5.849297e+01    
      4       -3.032482e+02    
 
     NUMBER OF EIGENVALUES CONVERGED UPTO THIS ITERATION = 0
 
     ITERATION 234
      1       3.896706e+01     
      2       -3.905567e+01    
      3       -5.841782e+01    
      4       -3.127792e+02    
 
     NUMBER OF EIGENVALUES CONVERGED UPTO THIS ITERATION = 0
 
     ITERATION 235
      1       3.896656e+01     
      2       -3.905455e+01    
      3       -5.834007e+01    
      4       -3.231612e+02    
 
     NUMBER OF EIGENVALUES CONVERGED UPTO THIS ITERATION = 0
 
     ITERATION 236
      1       3.896607e+01     
      2       -3.905346e+01    
      3       -5.825977e+01    
      4       -3.345043e+02    
 
     NUMBER OF EIGENVALUES CONVERGED UPTO THIS ITERATION = 0
 
     ITERATION 237
      1       3.896559e+01     
      2       -3.905239e+01    
      3       -5.817695e+01    
      4       -3.469386e+02    
 
     NUMBER OF EIGENVALUES CONVERGED UPTO THIS ITERATION = 0
 
     ITERATION 238
      1       3.896513e+01     
      2       -3.905136e+01    
      3       -5.809165e+01    
      4       -3.606190e+02    
 
     NUMBER OF EIGENVALUES CONVERGED UPTO THIS ITERATION = 0
 
     ITERATION 239
      1       3.896468e+01     
      2       -3.905035e+01    
      3       -5.800392e+01    
      4       -3.757316e+02    
 
     NUMBER OF EIGENVALUES CONVERGED UPTO THIS ITERATION = 0
 
     ITERATION 240
      1       3.896425e+01     
      2       -3.904937e+01    
      3       -5.791381e+01    
      4       -3.925016e+02    
 
     NUMBER OF EIGENVALUES CONVERGED UPTO THIS ITERATION = 0
 
     ITERATION 241
      1       3.896383e+01     
      2       -3.904841e+01    
      3       -5.782137e+01    
      4       -4.112044e+02    
 
     NUMBER OF EIGENVALUES CONVERGED UPTO THIS ITERATION = 0
 
     ITERATION 242
      1       3.896342e+01     
      2       -3.904748e+01    
      3       -5.772666e+01    
      4       -4.321804e+02    
 
     NUMBER OF EIGENVALUES CONVERGED UPTO THIS ITERATION = 0
 
     ITERATION 243
      1       3.896302e+01     
      2       -3.904658e+01    
      3       -5.762971e+01    
      4       -4.558554e+02    
 
     NUMBER OF EIGENVALUES CONVERGED UPTO THIS ITERATION = 0
 
     ITERATION 244
      1       3.896264e+01     
      2       -3.904569e+01    
      3       -5.753060e+01    
      4       -4.827686e+02    
 
     NUMBER OF EIGENVALUES CONVERGED UPTO THIS ITERATION = 0
 
     ITERATION 245
      1       3.896227e+01     
      2       -3.904483e+01    
      3       -5.742937e+01    
      4       -5.136142e+02    
 
     NUMBER OF EIGENVALUES CONVERGED UPTO THIS ITERATION = 0
 
     ITERATION 246
      1       3.896191e+01     
      2       -3.904400e+01    
      3       -5.732609e+01    
      4       -5.492999e+02    
 
     NUMBER OF EIGENVALUES CONVERGED UPTO THIS ITERATION = 0
 
     ITERATION 247
      1       3.896155e+01     
      2       -3.904318e+01    
      3       -5.722081e+01    
      4       -5.910374e+02    
 
     NUMBER OF EIGENVALUES CONVERGED UPTO THIS ITERATION = 0
 
     ITERATION 248
      1       3.896121e+01     
      2       -3.904239e+01    
      3       -5.711360e+01    
      4       -6.404798e+02    
 
     NUMBER OF EIGENVALUES CONVERGED UPTO THIS ITERATION = 0
 
     ITERATION 249
      1       3.896088e+01     
      2       -3.904162e+01    
      3       -5.700452e+01    
      4       -6.999438e+02    
 
     NUMBER OF EIGENVALUES CONVERGED UPTO THIS ITERATION = 0
 
     ITERATION 250
      1       3.896056e+01     
      2       -3.904087e+01    
      3       -5.689363e+01    
      4       -7.727794e+02    
 
     NUMBER OF EIGENVALUES CONVERGED UPTO THIS ITERATION = 0
 
     ITERATION 251
      1       3.896025e+01     
      2       -3.904014e+01    
      3       -5.678098e+01    
      4       -8.640177e+02    
 
     NUMBER OF EIGENVALUES CONVERGED UPTO THIS ITERATION = 0
 
     ITERATION 252
      1       3.895995e+01     
      2       -3.903943e+01    
      3       -5.666666e+01    
      4       -9.815778e+02    
 
     NUMBER OF EIGENVALUES CONVERGED UPTO THIS ITERATION = 0
 
     ITERATION 253
      1       3.895966e+01     
      2       -3.903873e+01    
      3       -5.655071e+01    
      4       -1.138685e+03    
 
     NUMBER OF EIGENVALUES CONVERGED UPTO THIS ITERATION = 0
 
     ITERATION 254
      1       3.895937e+01     
      2       -3.903806e+01    
      3       -5.643320e+01    
      4       -1.359211e+03    
 
     NUMBER OF EIGENVALUES CONVERGED UPTO THIS ITERATION = 0
 
     ITERATION 255
      1       3.895910e+01     
      2       -3.903740e+01    
      3       -5.631419e+01    
      4       -1.691083e+03    
 
     NUMBER OF EIGENVALUES CONVERGED UPTO THIS ITERATION = 0
 
     ITERATION 256
      1       3.895883e+01     
      2       -3.903676e+01    
      3       -5.619376e+01    
      4       -2.246792e+03    
 
     NUMBER OF EIGENVALUES CONVERGED UPTO THIS ITERATION = 0
 
     ITERATION 257
      1       3.895857e+01     
      2       -3.903614e+01    
      3       -5.607196e+01    
      4       -3.367311e+03    
 
     NUMBER OF EIGENVALUES CONVERGED UPTO THIS ITERATION = 0
 
     ITERATION 258
      1       3.895832e+01     
      2       -3.903553e+01    
      3       -5.594885e+01    
      4       -6.800658e+03    
 
     NUMBER OF EIGENVALUES CONVERGED UPTO THIS ITERATION = 0
 
     ITERATION 259
      1       3.895808e+01     
      2       -3.903494e+01    
      3       -5.582451e+01    
      4       2.137284e+05     
 
     NUMBER OF EIGENVALUES CONVERGED UPTO THIS ITERATION = 0
 
     ITERATION 260
      1       3.895784e+01     
      2       -3.903437e+01    
      3       -5.569898e+01    
      4       6.322320e+03     
 
     NUMBER OF EIGENVALUES CONVERGED UPTO THIS ITERATION = 0
 
     ITERATION 261
      1       3.895761e+01     
      2       -3.903381e+01    
      3       -5.557234e+01    
      4       3.190811e+03     
 
     NUMBER OF EIGENVALUES CONVERGED UPTO THIS ITERATION = 0
 
     ITERATION 262
      1       3.895739e+01     
      2       -3.903326e+01    
      3       -5.544464e+01    
      4       2.126120e+03     
 
     NUMBER OF EIGENVALUES CONVERGED UPTO THIS ITERATION = 0
 
     ITERATION 263
      1       3.895717e+01     
      2       -3.903273e+01    
      3       -5.531596e+01    
      4       1.589923e+03     
 
     NUMBER OF EIGENVALUES CONVERGED UPTO THIS ITERATION = 0
 
     ITERATION 264
      1       3.895696e+01     
      2       -3.903222e+01    
      3       -5.518633e+01    
      4       1.267053e+03     
 
     NUMBER OF EIGENVALUES CONVERGED UPTO THIS ITERATION = 0
 
     ITERATION 265
      1       3.895676e+01     
      2       -3.903171e+01    
      3       -5.505584e+01    
      4       1.051388e+03     
 
     NUMBER OF EIGENVALUES CONVERGED UPTO THIS ITERATION = 0
 
     ITERATION 266
      1       3.895656e+01     
      2       -3.903123e+01    
      3       -5.492453e+01    
      4       8.971810e+02     
 
     NUMBER OF EIGENVALUES CONVERGED UPTO THIS ITERATION = 0
 
     ITERATION 267
      1       3.895637e+01     
      2       -3.903075e+01    
      3       -5.479247e+01    
      4       7.814718e+02     
 
     NUMBER OF EIGENVALUES CONVERGED UPTO THIS ITERATION = 0
 
     ITERATION 268
      1       3.895618e+01     
      2       -3.903029e+01    
      3       -5.465970e+01    
      4       6.914701e+02     
 
     NUMBER OF EIGENVALUES CONVERGED UPTO THIS ITERATION = 0
 
     ITERATION 269
      1       3.895600e+01     
      2       -3.902983e+01    
      3       -5.452630e+01    
      4       6.194862e+02     
 
     NUMBER OF EIGENVALUES CONVERGED UPTO THIS ITERATION = 0
 
     ITERATION 270
      1       3.895583e+01     
      2       -3.902939e+01    
      3       -5.439231e+01    
      4       5.606187e+02     
 
     NUMBER OF EIGENVALUES CONVERGED UPTO THIS ITERATION = 0
 
     ITERATION 271
      1       3.895566e+01     
      2       -3.902897e+01    
      3       -5.425778e+01    
      4       5.115961e+02     
 
     NUMBER OF EIGENVALUES CONVERGED UPTO THIS ITERATION = 0
 
     ITERATION 272
      1       3.895549e+01     
      2       -3.902855e+01    
      3       -5.412278e+01    
      4       4.701511e+02     
 
     NUMBER OF EIGENVALUES CONVERGED UPTO THIS ITERATION = 0
 
     ITERATION 273
      1       3.895533e+01     
      2       -3.902815e+01    
      3       -5.398735e+01    
      4       4.346626e+02     
 
     NUMBER OF EIGENVALUES CONVERGED UPTO THIS ITERATION = 0
 
     ITERATION 274
      1       3.895518e+01     
      2       -3.902775e+01    
      3       -5.385155e+01    
      4       4.039412e+02     
 
     NUMBER OF EIGENVALUES CONVERGED UPTO THIS ITERATION = 0
 
     ITERATION 275
      1       3.895503e+01     
      2       -3.902737e+01    
      3       -5.371542e+01    
      4       3.770942e+02     
 
     NUMBER OF EIGENVALUES CONVERGED UPTO THIS ITERATION = 0
 
     ITERATION 276
      1       3.895488e+01     
      2       -3.902699e+01    
      3       -5.357902e+01    
      4       3.534386e+02     
 
     NUMBER OF EIGENVALUES CONVERGED UPTO THIS ITERATION = 0
 
     ITERATION 277
      1       3.895474e+01     
      2       -3.902663e+01    
      3       -5.344240e+01    
      4       3.324428e+02     
 
     NUMBER OF EIGENVALUES CONVERGED UPTO THIS ITERATION = 0
 
     ITERATION 278
      1       3.895460e+01     
      2       -3.902627e+01    
      3       -5.330559e+01    
      4       3.136873e+02     
 
     NUMBER OF EIGENVALUES CONVERGED UPTO THIS ITERATION = 0
 
     ITERATION 279
      1       3.895447e+01     
      2       -3.902593e+01    
      3       -5.316866e+01    
      4       2.968359e+02     
 
     NUMBER OF EIGENVALUES CONVERGED UPTO THIS ITERATION = 0
 
     ITERATION 280
      1       3.895434e+01     
      2       -3.902559e+01    
      3       -5.303164e+01    
      4       2.816168e+02     
 
     NUMBER OF EIGENVALUES CONVERGED UPTO THIS ITERATION = 0
 
     ITERATION 281
      1       3.895422e+01     
      2       -3.902526e+01    
      3       -5.289457e+01    
      4       2.678072e+02     
 
     NUMBER OF EIGENVALUES CONVERGED UPTO THIS ITERATION = 0
 
     ITERATION 282
      1       3.895409e+01     
      2       -3.902495e+01    
      3       -5.275751e+01    
      4       2.552233e+02     
 
     NUMBER OF EIGENVALUES CONVERGED UPTO THIS ITERATION = 0
 
     ITERATION 283
      1       3.895398e+01     
      2       -3.902463e+01    
      3       -5.262049e+01    
      4       2.437118e+02     
 
     NUMBER OF EIGENVALUES CONVERGED UPTO THIS ITERATION = 0
 
     ITERATION 284
      1       3.895386e+01     
      2       -3.902433e+01    
      3       -5.248355e+01    
      4       2.331438e+02     
 
     NUMBER OF EIGENVALUES CONVERGED UPTO THIS ITERATION = 0
 
     ITERATION 285
      1       3.895375e+01     
      2       -3.902404e+01    
      3       -5.234674e+01    
      4       2.234103e+02     
 
     NUMBER OF EIGENVALUES CONVERGED UPTO THIS ITERATION = 0
 
     ITERATION 286
      1       3.895364e+01     
      2       -3.902375e+01    
      3       -5.221008e+01    
      4       2.144185e+02     
 
     NUMBER OF EIGENVALUES CONVERGED UPTO THIS ITERATION = 0
 
     ITERATION 287
      1       3.895354e+01     
      2       -3.902347e+01    
      3       -5.207363e+01    
      4       2.060888e+02     
 
     NUMBER OF EIGENVALUES CONVERGED UPTO THIS ITERATION = 0
 
     ITERATION 288
      1       3.895344e+01     
      2       -3.902320e+01    
      3       -5.193742e+01    
      4       1.983525e+02     
 
     NUMBER OF EIGENVALUES CONVERGED UPTO THIS ITERATION = 0
 
     ITERATION 289
      1       3.895334e+01     
      2       -3.902294e+01    
      3       -5.180147e+01    
      4       1.911502e+02     
 
     NUMBER OF EIGENVALUES CONVERGED UPTO THIS ITERATION = 0
 
     ITERATION 290
      1       3.895324e+01     
      2       -3.902268e+01    
      3       -5.166583e+01    
      4       1.844300e+02     
 
     NUMBER OF EIGENVALUES CONVERGED UPTO THIS ITERATION = 0
 
     ITERATION 291
      1       3.895315e+01     
      2       -3.902243e+01    
      3       -5.153054e+01    
      4       1.781466e+02     
 
     NUMBER OF EIGENVALUES CONVERGED UPTO THIS ITERATION = 0
 
     ITERATION 292
      1       3.895306e+01     
      2       -3.902218e+01    
      3       -5.139561e+01    
      4       1.722602e+02     
 
     NUMBER OF EIGENVALUES CONVERGED UPTO THIS ITERATION = 0
 
     ITERATION 293
      1       3.895297e+01     
      2       -3.902195e+01    
      3       -5.126109e+01    
      4       1.667356e+02     
 
     NUMBER OF EIGENVALUES CONVERGED UPTO THIS ITERATION = 0
 
     ITERATION 294
      1       3.895289e+01     
      2       -3.902171e+01    
      3       -5.112701e+01    
      4       1.615417e+02     
 
     NUMBER OF EIGENVALUES CONVERGED UPTO THIS ITERATION = 0
 
     ITERATION 295
      1       3.895280e+01     
      2       -3.902149e+01    
      3       -5.099339e+01    
      4       1.566507e+02     
 
     NUMBER OF EIGENVALUES CONVERGED UPTO THIS ITERATION = 0
 
     ITERATION 296
      1       3.895272e+01     
      2       -3.902127e+01    
      3       -5.086026e+01    
      4       1.520382e+02     
 
     NUMBER OF EIGENVALUES CONVERGED UPTO THIS ITERATION = 0
 
     ITERATION 297
      1       3.895265e+01     
      2       -3.902106e+01    
      3       -5.072765e+01    
      4       1.476818e+02     
 
     NUMBER OF EIGENVALUES CONVERGED UPTO THIS ITERATION = 0
 
     ITERATION 298
      1       3.895257e+01     
      2       -3.902085e+01    
      3       -5.059559e+01    
      4       1.435619e+02     
 
     NUMBER OF EIGENVALUES CONVERGED UPTO THIS ITERATION = 0
 
     ITERATION 299
      1       3.895250e+01     
      2       -3.902064e+01    
      3       -5.046410e+01    
      4       1.396606e+02     
 
     NUMBER OF EIGENVALUES CONVERGED UPTO THIS ITERATION = 0
 
     ITERATION 300
      1       3.895243e+01     
      2       -3.902045e+01    
      3       -5.033321e+01    
      4       1.359618e+02     
 
     NUMBER OF EIGENVALUES CONVERGED UPTO THIS ITERATION = 0
 
     ITERATION 301
      1       3.895236e+01     
      2       -3.902025e+01    
      3       -5.020294e+01    
      4       1.324510e+02     
 
     NUMBER OF EIGENVALUES CONVERGED UPTO THIS ITERATION = 0
 
     ITERATION 302
      1       3.895229e+01     
      2       -3.902007e+01    
      3       -5.007332e+01    
      4       1.291149e+02     
 
     NUMBER OF EIGENVALUES CONVERGED UPTO THIS ITERATION = 0
 
     ITERATION 303
      1       3.895223e+01     
      2       -3.901988e+01    
      3       -4.994436e+01    
      4       1.259416e+02     
 
     NUMBER OF EIGENVALUES CONVERGED UPTO THIS ITERATION = 0
 
     ITERATION 304
      1       3.895217e+01     
      2       -3.901971e+01    
      3       -4.981609e+01    
      4       1.229201e+02     
 
     NUMBER OF EIGENVALUES CONVERGED UPTO THIS ITERATION = 0
 
     ITERATION 305
      1       3.895210e+01     
      2       -3.901953e+01    
      3       -4.968853e+01    
      4       1.200405e+02     
 
     NUMBER OF EIGENVALUES CONVERGED UPTO THIS ITERATION = 0
 
     ITERATION 306
      1       3.895205e+01     
      2       -3.901936e+01    
      3       -4.956170e+01    
      4       1.172935e+02     
 
     NUMBER OF EIGENVALUES CONVERGED UPTO THIS ITERATION = 0
 
     ITERATION 307
      1       3.895199e+01     
      2       -3.901920e+01    
      3       -4.943561e+01    
      4       1.146710e+02     
 
     NUMBER OF EIGENVALUES CONVERGED UPTO THIS ITERATION = 0
 
     ITERATION 308
      1       3.895193e+01     
      2       -3.901904e+01    
      3       -4.931028e+01    
      4       1.121651e+02     
 
     NUMBER OF EIGENVALUES CONVERGED UPTO THIS ITERATION = 0
 
     ITERATION 309
      1       3.895188e+01     
      2       -3.901888e+01    
      3       -4.918574e+01    
      4       1.097687e+02     
 
     NUMBER OF EIGENVALUES CONVERGED UPTO THIS ITERATION = 0
 
     ITERATION 310
      1       3.895183e+01     
      2       -3.901873e+01    
      3       -4.906200e+01    
      4       1.074755e+02     
 
     NUMBER OF EIGENVALUES CONVERGED UPTO THIS ITERATION = 0
 
     ITERATION 311
      1       3.895177e+01     
      2       -3.901858e+01    
      3       -4.893907e+01    
      4       1.052794e+02     
 
     NUMBER OF EIGENVALUES CONVERGED UPTO THIS ITERATION = 0
 
     ITERATION 312
      1       3.895173e+01     
      2       -3.901844e+01    
      3       -4.881697e+01    
      4       1.031748e+02     
 
     NUMBER OF EIGENVALUES CONVERGED UPTO THIS ITERATION = 0
 
     ITERATION 313
      1       3.895168e+01     
      2       -3.901830e+01    
      3       -4.869571e+01    
      4       1.011565e+02     
 
     NUMBER OF EIGENVALUES CONVERGED UPTO THIS ITERATION = 0
 
     ITERATION 314
      1       3.895163e+01     
      2       -3.901816e+01    
      3       -4.857531e+01    
      4       9.921994e+01     
 
     NUMBER OF EIGENVALUES CONVERGED UPTO THIS ITERATION = 0
 
     ITERATION 315
      1       3.895159e+01     
      2       -3.901803e+01    
      3       -4.845578e+01    
      4       9.736053e+01     
 
     NUMBER OF EIGENVALUES CONVERGED UPTO THIS ITERATION = 0
 
     ITERATION 316
      1       3.895154e+01     
      2       -3.901790e+01    
      3       -4.833713e+01    
      4       9.557419e+01     
 
     NUMBER OF EIGENVALUES CONVERGED UPTO THIS ITERATION = 0
 
     ITERATION 317
      1       3.895150e+01     
      2       -3.901777e+01    
      3       -4.821937e+01    
      4       9.385709e+01     
 
     NUMBER OF EIGENVALUES CONVERGED UPTO THIS ITERATION = 0
 
     ITERATION 318
      1       3.895146e+01     
      2       -3.901765e+01    
      3       -4.810251e+01    
      4       9.220568e+01     
 
     NUMBER OF EIGENVALUES CONVERGED UPTO THIS ITERATION = 0
 
     ITERATION 319
      1       3.895142e+01     
      2       -3.901753e+01    
      3       -4.798657e+01    
      4       9.061661e+01     
 
     NUMBER OF EIGENVALUES CONVERGED UPTO THIS ITERATION = 0
 
     ITERATION 320
      1       3.895138e+01     
      2       -3.901741e+01    
      3       -4.787155e+01    
      4       8.908677e+01     
 
     NUMBER OF EIGENVALUES CONVERGED UPTO THIS ITERATION = 1
 
     ITERATION 321
      1       3.895134e+01     
      2       -3.901730e+01    
      3       -4.775747e+01    
      4       8.761325e+01     
 
     NUMBER OF EIGENVALUES CONVERGED UPTO THIS ITERATION = 1
 
     ITERATION 322
      1       3.895130e+01     
      2       -3.901718e+01    
      3       -4.764432e+01    
      4       8.619333e+01     
 
     NUMBER OF EIGENVALUES CONVERGED UPTO THIS ITERATION = 1
 
     ITERATION 323
      1       3.895127e+01     
      2       -3.901708e+01    
      3       -4.753213e+01    
      4       8.482445e+01     
 
     NUMBER OF EIGENVALUES CONVERGED UPTO THIS ITERATION = 1
 
     ITERATION 324
      1       3.895123e+01     
      2       -3.901697e+01    
      3       -4.742088e+01    
      4       8.350421e+01     
 
     NUMBER OF EIGENVALUES CONVERGED UPTO THIS ITERATION = 1
 
     ITERATION 325
      1       3.895120e+01     
      2       -3.901687e+01    
      3       -4.731060e+01    
      4       8.223037e+01     
 
     NUMBER OF EIGENVALUES CONVERGED UPTO THIS ITERATION = 1
 
     ITERATION 326
      1       3.895117e+01     
      2       -3.901677e+01    
      3       -4.720129e+01    
      4       8.100080e+01     
 
     NUMBER OF EIGENVALUES CONVERGED UPTO THIS ITERATION = 1
 
     ITERATION 327
      1       3.895114e+01     
      2       -3.901667e+01    
      3       -4.709295e+01    
      4       7.981351e+01     
 
     NUMBER OF EIGENVALUES CONVERGED UPTO THIS ITERATION = 1
 
     ITERATION 328
      1       3.895111e+01     
      2       -3.901657e+01    
      3       -4.698559e+01    
      4       7.866663e+01     
 
     NUMBER OF EIGENVALUES CONVERGED UPTO THIS ITERATION = 1
 
     ITERATION 329
      1       3.895108e+01     
      2       -3.901648e+01    
      3       -4.687922e+01    
      4       7.755839e+01     
 
     NUMBER OF EIGENVALUES CONVERGED UPTO THIS ITERATION = 1
 
     ITERATION 330
      1       3.895105e+01     
      2       -3.901639e+01    
      3       -4.677383e+01    
      4       7.648712e+01     
 
     NUMBER OF EIGENVALUES CONVERGED UPTO THIS ITERATION = 1
 
     ITERATION 331
      1       3.895102e+01     
      2       -3.901630e+01    
      3       -4.666943e+01    
      4       7.545124e+01     
 
     NUMBER OF EIGENVALUES CONVERGED UPTO THIS ITERATION = 1
 
     ITERATION 332
      1       3.895099e+01     
      2       -3.901621e+01    
      3       -4.656602e+01    
      4       7.444926e+01     
 
     NUMBER OF EIGENVALUES CONVERGED UPTO THIS ITERATION = 1
 
     ITERATION 333
      1       3.895096e+01     
      2       -3.901613e+01    
      3       -4.646362e+01    
      4       7.347978e+01     
 
     NUMBER OF EIGENVALUES CONVERGED UPTO THIS ITERATION = 1
 
     ITERATION 334
      1       3.895094e+01     
      2       -3.901605e+01    
      3       -4.636221e+01    
      4       7.254146e+01     
 
     NUMBER OF EIGENVALUES CONVERGED UPTO THIS ITERATION = 1
 
     ITERATION 335
      1       3.895091e+01     
      2       -3.901597e+01    
      3       -4.626180e+01    
      4       7.163303e+01     
 
     NUMBER OF EIGENVALUES CONVERGED UPTO THIS ITERATION = 1
 
     ITERATION 336
      1       3.895089e+01     
      2       -3.901589e+01    
      3       -4.616239e+01    
      4       7.075331e+01     
 
     NUMBER OF EIGENVALUES CONVERGED UPTO THIS ITERATION = 1
 
     ITERATION 337
      1       3.895087e+01     
      2       -3.901581e+01    
      3       -4.606398e+01    
      4       6.990115e+01     
 
     NUMBER OF EIGENVALUES CONVERGED UPTO THIS ITERATION = 1
 
     ITERATION 338
      1       3.895084e+01     
      2       -3.901574e+01    
      3       -4.596658e+01    
      4       6.907547e+01     
 
     NUMBER OF EIGENVALUES CONVERGED UPTO THIS ITERATION = 1
 
     ITERATION 339
      1       3.895082e+01     
      2       -3.901566e+01    
      3       -4.587018e+01    
      4       6.827526e+01     
 
     NUMBER OF EIGENVALUES CONVERGED UPTO THIS ITERATION = 1
 
     ITERATION 340
      1       3.895080e+01     
      2       -3.901559e+01    
      3       -4.577479e+01    
      4       6.749953e+01     
 
     NUMBER OF EIGENVALUES CONVERGED UPTO THIS ITERATION = 1
 
     ITERATION 341
      1       3.895078e+01     
      2       -3.901552e+01    
      3       -4.568040e+01    
      4       6.674736e+01     
 
     NUMBER OF EIGENVALUES CONVERGED UPTO THIS ITERATION = 1
 
     ITERATION 342
      1       3.895076e+01     
      2       -3.901546e+01    
      3       -4.558701e+01    
      4       6.601787e+01     
 
     NUMBER OF EIGENVALUES CONVERGED UPTO THIS ITERATION = 1
 
     ITERATION 343
      1       3.895074e+01     
      2       -3.901539e+01    
      3       -4.549462e+01    
      4       6.531021e+01     
 
     NUMBER OF EIGENVALUES CONVERGED UPTO THIS ITERATION = 1
 
     ITERATION 344
      1       3.895072e+01     
      2       -3.901533e+01    
      3       -4.540323e+01    
      4       6.462360e+01     
 
     NUMBER OF EIGENVALUES CONVERGED UPTO THIS ITERATION = 1
 
     ITERATION 345
      1       3.895070e+01     
      2       -3.901526e+01    
      3       -4.531283e+01    
      4       6.395726e+01     
 
     NUMBER OF EIGENVALUES CONVERGED UPTO THIS ITERATION = 1
 
     ITERATION 346
      1       3.895068e+01     
      2       -3.901520e+01    
      3       -4.522343e+01    
      4       6.331047e+01     
 
     NUMBER OF EIGENVALUES CONVERGED UPTO THIS ITERATION = 1
 
     ITERATION 347
      1       3.895067e+01     
      2       -3.901514e+01    
      3       -4.513503e+01    
      4       6.268253e+01     
 
     NUMBER OF EIGENVALUES CONVERGED UPTO THIS ITERATION = 1
 
     ITERATION 348
      1       3.895065e+01     
      2       -3.901508e+01    
      3       -4.504761e+01    
      4       6.207279e+01     
 
     NUMBER OF EIGENVALUES CONVERGED UPTO THIS ITERATION = 1
 
     ITERATION 349
      1       3.895063e+01     
      2       -3.901503e+01    
      3       -4.496118e+01    
      4       6.148059e+01     
 
     NUMBER OF EIGENVALUES CONVERGED UPTO THIS ITERATION = 1
 
     ITERATION 350
      1       3.895062e+01     
      2       -3.901497e+01    
      3       -4.487574e+01    
      4       6.090535e+01     
 
     NUMBER OF EIGENVALUES CONVERGED UPTO THIS ITERATION = 1
 
     ITERATION 351
      1       3.895060e+01     
      2       -3.901492e+01    
      3       -4.479127e+01    
      4       6.034647e+01     
 
     NUMBER OF EIGENVALUES CONVERGED UPTO THIS ITERATION = 1
 
     ITERATION 352
      1       3.895059e+01     
      2       -3.901486e+01    
      3       -4.470778e+01    
      4       5.980340e+01     
 
     NUMBER OF EIGENVALUES CONVERGED UPTO THIS ITERATION = 1
 
     ITERATION 353
      1       3.895057e+01     
      2       -3.901481e+01    
      3       -4.462527e+01    
      4       5.927562e+01     
 
     NUMBER OF EIGENVALUES CONVERGED UPTO THIS ITERATION = 1
 
     ITERATION 354
      1       3.895056e+01     
      2       -3.901476e+01    
      3       -4.454372e+01    
      4       5.876261e+01     
 
     NUMBER OF EIGENVALUES CONVERGED UPTO THIS ITERATION = 1
 
     ITERATION 355
      1       3.895054e+01     
      2       -3.901471e+01    
      3       -4.446313e+01    
      4       5.826388e+01     
 
     NUMBER OF EIGENVALUES CONVERGED UPTO THIS ITERATION = 1
 
     ITERATION 356
      1       3.895053e+01     
      2       -3.901466e+01    
      3       -4.438350e+01    
      4       5.777897e+01     
 
     NUMBER OF EIGENVALUES CONVERGED UPTO THIS ITERATION = 1
 
     ITERATION 357
      1       3.895052e+01     
      2       -3.901462e+01    
      3       -4.430483e+01    
      4       5.730743e+01     
 
     NUMBER OF EIGENVALUES CONVERGED UPTO THIS ITERATION = 1
 
     ITERATION 358
      1       3.895050e+01     
      2       -3.901457e+01    
      3       -4.422711e+01    
      4       5.684882e+01     
 
     NUMBER OF EIGENVALUES CONVERGED UPTO THIS ITERATION = 1
 
     ITERATION 359
      1       3.895049e+01     
      2       -3.901452e+01    
      3       -4.415033e+01    
      4       5.640274e+01     
 
     NUMBER OF EIGENVALUES CONVERGED UPTO THIS ITERATION = 1
 
     ITERATION 360
      1       3.895048e+01     
      2       -3.901448e+01    
      3       -4.407448e+01    
      4       5.596878e+01     
 
     NUMBER OF EIGENVALUES CONVERGED UPTO THIS ITERATION = 1
 
     ITERATION 361
      1       3.895047e+01     
      2       -3.901444e+01    
      3       -4.399957e+01    
      4       5.554656e+01     
 
     NUMBER OF EIGENVALUES CONVERGED UPTO THIS ITERATION = 1
 
     ITERATION 362
      1       3.895046e+01     
      2       -3.901440e+01    
      3       -4.392559e+01    
      4       5.513572e+01     
 
     NUMBER OF EIGENVALUES CONVERGED UPTO THIS ITERATION = 1
 
     ITERATION 363
      1       3.895045e+01     
      2       -3.901435e+01    
      3       -4.385253e+01    
      4       5.473591e+01     
 
     NUMBER OF EIGENVALUES CONVERGED UPTO THIS ITERATION = 1
 
     ITERATION 364
      1       3.895044e+01     
      2       -3.901431e+01    
      3       -4.378038e+01    
      4       5.434678e+01     
 
     NUMBER OF EIGENVALUES CONVERGED UPTO THIS ITERATION = 1
 
     ITERATION 365
      1       3.895042e+01     
      2       -3.901427e+01    
      3       -4.370914e+01    
      4       5.396800e+01     
 
     NUMBER OF EIGENVALUES CONVERGED UPTO THIS ITERATION = 1
 
     ITERATION 366
      1       3.895041e+01     
      2       -3.901424e+01    
      3       -4.363880e+01    
      4       5.359927e+01     
 
     NUMBER OF EIGENVALUES CONVERGED UPTO THIS ITERATION = 2
1

   Abaqus 2022                                  Date 31-mar-2025   Time 18:53:37
   For use by NORGES TEKNISK NATURVITENSKAPELIGE UNIVERSITET under license from Dassault Systemes or its subsidiary.

                                                                                 
                                                                                 
 STEP    2     INCREMENT     1     STEP TIME    0.00    


                        S T E P       2     S T A T I C   A N A L Y S I S


                                                                                          

     AUTOMATIC TIME CONTROL WITH -
          A SUGGESTED INITIAL TIME INCREMENT OF                 1.00    
          AND A TOTAL TIME PERIOD OF                            1.00    
          THE MINIMUM TIME INCREMENT ALLOWED IS                1.000E-05
          THE MAXIMUM TIME INCREMENT ALLOWED IS                 1.00    

     LINEAR EQUATION SOLVER TYPE         DIRECT SPARSE

 CONVERGENCE TOLERANCE PARAMETERS FOR FORCE    
     CRITERION FOR RESIDUAL FORCE     FOR A NONLINEAR PROBLEM          5.000E-03
     CRITERION FOR DISP.    CORRECTION IN A NONLINEAR PROBLEM          1.000E-02
     INIT. VALUE OF TIME AVG. FORCE     IS TIME AVG. FORCE     IN PREVIOUS STEP
     AVERAGE FORCE     IS TIME AVERAGE FORCE    
     ALTERNATE CRIT. FOR RESIDUAL FORCE     FOR A NONLINEAR PROBLEM    2.000E-02
     CRITERION FOR ZERO FORCE     RELATIVE TO TIME AVRG. FORCE         1.000E-05
     CRITERION FOR RESIDUAL FORCE     WHEN THERE IS ZERO FLUX          1.000E-05
     CRITERION FOR DISP.    CORRECTION WHEN THERE IS ZERO FLUX         1.000E-03
     CRITERION FOR RESIDUAL FORCE     FOR A LINEAR INCREMENT           1.000E-08
     FIELD CONVERSION RATIO                                             1.00    
     CRITERION FOR ZERO FORCE     REL. TO TIME AVRG. MAX. FORCE        1.000E-05
     CRITERION FOR ZERO DISP.    RELATIVE TO CHARACTERISTIC LENGTH     1.000E-08

 CONVERGENCE TOLERANCE PARAMETERS FOR MOMENT   
     CRITERION FOR RESIDUAL MOMENT    FOR A NONLINEAR PROBLEM          5.000E-03
     CRITERION FOR ROTATION CORRECTION IN A NONLINEAR PROBLEM          1.000E-02
     INIT. VALUE OF TIME AVG. MOMENT    IS TIME AVG. MOMENT    IN PREVIOUS STEP
     AVERAGE MOMENT    IS TIME AVERAGE MOMENT   
     ALTERNATE CRIT. FOR RESIDUAL MOMENT    FOR A NONLINEAR PROBLEM    2.000E-02
     CRITERION FOR ZERO MOMENT    RELATIVE TO TIME AVRG. MOMENT        1.000E-05
     CRITERION FOR RESIDUAL MOMENT    WHEN THERE IS ZERO FLUX          1.000E-05
     CRITERION FOR ROTATION CORRECTION WHEN THERE IS ZERO FLUX         1.000E-03
     CRITERION FOR RESIDUAL MOMENT    FOR A LINEAR INCREMENT           1.000E-08
     FIELD CONVERSION RATIO                                             1.00    
     CRITERION FOR ZERO MOMENT    REL. TO TIME AVRG. MAX. MOMENT       1.000E-05

     VOLUMETRIC STRAIN COMPATIBILITY TOLERANCE FOR HYBRID SOLIDS       1.000E-05
     AXIAL STRAIN COMPATIBILITY TOLERANCE FOR HYBRID BEAMS             1.000E-05
     TRANS. SHEAR STRAIN COMPATIBILITY TOLERANCE FOR HYBRID BEAMS      1.000E-05
     SOFT CONTACT CONSTRAINT COMPATIBILITY TOLERANCE FOR P>P0          5.000E-03
     SOFT CONTACT CONSTRAINT COMPATIBILITY TOLERANCE FOR P=0.0         0.100    
     CONTACT FORCE ERROR TOLERANCE FOR CONVERT SDI=YES                 1.00    
     DISPLACEMENT COMPATIBILITY TOLERANCE FOR DCOUP ELEMENTS           1.000E-05
     ROTATION COMPATIBILITY TOLERANCE FOR DCOUP ELEMENTS               1.000E-05

 EQUILIBRIUM WILL BE CHECKED FOR SEVERE DISCONTINUITY ITERATIONS

 TIME INCREMENTATION CONTROL PARAMETERS:
     FIRST EQUILIBRIUM ITERATION FOR CONSECUTIVE DIVERGENCE CHECK              4
     EQUILIBRIUM ITERATION AT WHICH LOG. CONVERGENCE RATE CHECK BEGINS         8
     EQUILIBRIUM ITERATION AFTER WHICH ALTERNATE RESIDUAL IS USED              9
     MAXIMUM EQUILIBRIUM ITERATIONS ALLOWED                                   16
     EQUILIBRIUM ITERATION COUNT FOR CUT-BACK IN NEXT INCREMENT               10
     MAXIMUM EQUILIB. ITERS IN TWO INCREMENTS FOR TIME INCREMENT INCREASE      4
     MAXIMUM ITERATIONS FOR SEVERE DISCONTINUITIES                            50
     MAXIMUM ATTEMPTS ALLOWED IN AN INCREMENT                                  5
     MAXIMUM DISCON. ITERS IN TWO INCREMENTS FOR TIME INCREMENT INCREASE      50
     MAXIMUM CONTACT AUGMENTATIONS FOR *SURFACE BEHAVIOR,AUGMENTED LAGRANGE   50
     CUT-BACK FACTOR AFTER DIVERGENCE                                 0.2500    
     CUT-BACK FACTOR FOR TOO SLOW CONVERGENCE                         0.5000    
     CUT-BACK FACTOR AFTER TOO MANY EQUILIBRIUM ITERATIONS            0.7500    
     CUT-BACK FACTOR AFTER TOO MANY SEVERE DISCONTINUITY ITERATIONS   0.2500    
     CUT-BACK FACTOR AFTER PROBLEMS IN ELEMENT ASSEMBLY               0.2500    
     INCREASE FACTOR AFTER TWO INCREMENTS THAT CONVERGE QUICKLY        1.500    
     MAX. TIME INCREMENT INCREASE FACTOR ALLOWED                       1.500    
     MAX. TIME INCREMENT INCREASE FACTOR ALLOWED (DYNAMICS)            1.250    
     MAX. TIME INCREMENT INCREASE FACTOR ALLOWED (DIFFUSION)           2.000    
     MINIMUM TIME INCREMENT RATIO FOR EXTRAPOLATION TO OCCUR          0.1000    
     MAX. RATIO OF TIME INCREMENT TO STABILITY LIMIT                   1.000    
     FRACTION OF STABILITY LIMIT FOR NEW TIME INCREMENT               0.9500    
     TIME INCREMENT INCREASE FACTOR BEFORE A TIME POINT                1.000    
     GLOBAL STABILIZATION CONTROL IS NOT USED

          PRINT OF INCREMENT NUMBER, TIME, ETC., EVERY    1  INCREMENTS

     THE MAXIMUM NUMBER OF INCREMENTS IN THIS STEP IS                     100

     LINEAR EXTRAPOLATION WILL BE USED

     CHARACTERISTIC ELEMENT LENGTH      19.0    

     DETAILS REGARDING ACTUAL SOLUTION WAVEFRONT REQUESTED

     DETAILED OUTPUT OF DIAGNOSTICS TO DATABASE REQUESTED

     PRINT OF INCREMENT NUMBER, TIME, ETC., TO THE MESSAGE FILE EVERY     1  INCREMENTS

     COLLECTING MODEL CONSTRAINT INFORMATION FOR OVERCONSTRAINT CHECKS

     COLLECTING STEP CONSTRAINT INFORMATION FOR OVERCONSTRAINT CHECKS


  INCREMENT     1 STARTS. ATTEMPT NUMBER  1, TIME INCREMENT   1.00    
 
	SYMMETRIC DIRECT SPARSE SOLVER RUNNING ON
 	1 HOST:        1 MPI RANK  x 1 THREAD
 	NUMBER OF EQUATIONS:     23508
 	NUMBER OF RHS:           1
 	NUMBER OF FLOPS:         1.541e+09

     CHECK POINT   START OF SOLVER    

     CHECK POINT  END OF SOLVER       

       ELAPSED USER TIME (SEC)      =  0.20000    
       ELAPSED SYSTEM TIME (SEC)    =   0.0000    
       ELAPSED TOTAL CPU TIME (SEC) =  0.20000    
       ELAPSED WALLCLOCK TIME (SEC) =          1

               CONVERGENCE CHECKS FOR EQUILIBRIUM ITERATION     1


 AVERAGE FORCE                       1.67       TIME AVG. FORCE        1.67    
 LARGEST RESIDUAL FORCE            -6.575E-09   AT NODE        560   DOF  3
   INSTANCE: BOX                                                                             
 LARGEST INCREMENT OF DISP.         -1.14       AT NODE       2271   DOF  3
   INSTANCE: BOX                                                                             
 LARGEST CORRECTION TO DISP.        -1.14       AT NODE       2271   DOF  3
   INSTANCE: BOX                                                                             
          THE FORCE     EQUILIBRIUM RESPONSE WAS LINEAR IN THIS INCREMENT

 AVERAGE MOMENT                     3.753E-02   TIME AVG. MOMENT      3.753E-02
 LARGEST RESIDUAL MOMENT            2.770E-09   AT NODE        277   DOF  5
   INSTANCE: BOX                                                                             
 LARGEST INCREMENT OF ROTATION      1.002E-03   AT NODE       3180   DOF  5
   INSTANCE: BOX                                                                             
 LARGEST CORRECTION TO ROTATION     1.002E-03   AT NODE       3180   DOF  5
   INSTANCE: BOX                                                                             
          ROTATION CORRECTION TOO LARGE COMPARED TO ROTATION INCREMENT
 
	SYMMETRIC DIRECT SPARSE SOLVER RUNNING ON
 	1 HOST:        1 MPI RANK  x 1 THREAD
 	NUMBER OF EQUATIONS:     23508
 	NUMBER OF RHS:           1
 	NUMBER OF FLOPS:         1.541e+09

     CHECK POINT   START OF SOLVER    

     CHECK POINT  END OF SOLVER       

       ELAPSED USER TIME (SEC)      =  0.20000    
       ELAPSED SYSTEM TIME (SEC)    =   0.0000    
       ELAPSED TOTAL CPU TIME (SEC) =  0.20000    
       ELAPSED WALLCLOCK TIME (SEC) =          0

               CONVERGENCE CHECKS FOR EQUILIBRIUM ITERATION     2


 AVERAGE FORCE                       1.67       TIME AVG. FORCE        1.67    
 LARGEST RESIDUAL FORCE            -1.525E-09   AT NODE        189   DOF  3
   INSTANCE: BOX                                                                             
 LARGEST INCREMENT OF DISP.         -1.14       AT NODE       2271   DOF  3
   INSTANCE: BOX                                                                             
 LARGEST CORRECTION TO DISP.       -9.627E-11   AT NODE        284   DOF  3
   INSTANCE: BOX                                                                             
          THE FORCE     EQUILIBRIUM EQUATIONS HAVE CONVERGED

 AVERAGE MOMENT                     3.753E-02   TIME AVG. MOMENT      3.753E-02
 LARGEST RESIDUAL MOMENT            1.018E-09   AT NODE        539   DOF  5
   INSTANCE: BOX                                                                             
 LARGEST INCREMENT OF ROTATION      1.002E-03   AT NODE       3180   DOF  5
   INSTANCE: BOX                                                                             
 LARGEST CORRECTION TO ROTATION    -1.532E-12   AT NODE        464   DOF  4
   INSTANCE: BOX                                                                             
          THE MOMENT    EQUILIBRIUM EQUATIONS HAVE CONVERGED

 ITERATION SUMMARY FOR THE INCREMENT:   2 TOTAL ITERATIONS, OF WHICH
   0 ARE SEVERE DISCONTINUITY ITERATIONS AND  2 ARE EQUILIBRIUM ITERATIONS.

 TIME INCREMENT COMPLETED   1.00    ,  FRACTION OF STEP COMPLETED   1.00    
 STEP TIME COMPLETED        1.00    ,  TOTAL TIME COMPLETED         1.00    


          THE ANALYSIS HAS BEEN COMPLETED



     ANALYSIS SUMMARY:
     TOTAL OF          2  INCREMENTS
                       0  CUTBACKS IN AUTOMATIC INCREMENTATION
                       3  ITERATIONS INCLUDING CONTACT ITERATIONS IF PRESENT
                       3  PASSES THROUGH THE EQUATION SOLVER OF WHICH 
                       3  INVOLVE MATRIX DECOMPOSITION, INCLUDING
                       0  DECOMPOSITION(S) OF THE MASS MATRIX
                       1  REORDERING OF EQUATIONS TO MINIMIZE WAVEFRONT
                       0  ADDITIONAL RESIDUAL EVALUATIONS FOR LINE SEARCHES
                       0  ADDITIONAL OPERATOR EVALUATIONS FOR LINE SEARCHES
                       1  WARNING MESSAGES DURING USER INPUT PROCESSING
                       0  WARNING MESSAGES DURING ANALYSIS
                       0  ANALYSIS WARNINGS ARE NUMERICAL PROBLEM MESSAGES
                       0  ANALYSIS WARNINGS ARE NEGATIVE EIGENVALUE MESSAGES
                       0  ERROR MESSAGES



     JOB TIME SUMMARY
       USER TIME (SEC)      =   43.100    
       SYSTEM TIME (SEC)    =   3.6000    
       TOTAL CPU TIME (SEC) =   46.700    
       WALLCLOCK TIME (SEC) =         47
