*Heading
** Job name: 2_bolts Model name: A4
** Generated by: Abaqus/CAE 2022
*Preprint, echo=NO, model=NO, history=NO, contact=NO
**
** PARTS
**
*Part, name=Bolt
*End Part
**  
*Part, name=Plate
*Node
      1,         100.,           0.,           0.
      2,         100.,          40.,           0.
      3,          90.,          50.,           0.
      4,          60.,          50.,           0.
      5,          50.,          40.,           0.
      6,          50.,           0.,           0.
      7,         100.,          60.,           0.
      8,         100.,         100.,           0.
      9,          50.,         100.,           0.
     10,          50.,          60.,           0.
     11,          40.,          50.,           0.
     12,           0.,          50.,           0.
     13,           0.,           0.,           0.
     14,           0.,         100.,           0.
     15,        1000.,           0.,           0.
     16,        1000.,          50.,           0.
     17,         110.,          50.,           0.
     18,        1000.,         100.,           0.
     19,   58.3333321,           0.,           0.
     20,   66.6666641,           0.,           0.
** ... 3756 like lines cut
*Element, type=S4R
 1,  20,  21, 697, 688
 2,  21,  22, 698, 697
 3,  22,  23, 699, 698
 4,  23,   1,  24, 699
 5, 688, 697, 700, 687
 6, 697, 698, 701, 700
 7, 698, 699, 702, 701
 8, 699,  24,  25, 702
 9, 687, 700, 686, 683
10, 700, 701, 685, 686
11, 701, 702, 684, 685
12, 702,  25,  26, 684
13,  26,  27, 703, 684
14,  27,   2,  28, 703
15, 684, 703, 704, 685
16, 703,  28,  29, 704
17, 685, 704, 705, 686
18, 704,  29,  30, 705
19, 686, 705, 689, 683
20, 705,  30,  31, 689
** ... 3526 like lines cut
*Nset, nset=faces-all, generate
    1,  3776,     1
*Elset, elset=faces-all, generate
    1,  3546,     1
*Nset, nset=edge-prim-axis
  6, 13, 78, 79, 80, 81, 82, 83, 84, 85
*Elset, elset=edge-prim-axis
 145, 191, 196, 201, 206, 211, 216, 221, 226
*Elset, elset=_SurfOuter_SPOS, internal, generate
    1,  3546,     1
*Surface, type=ELEMENT, name=SurfOuter
_SurfOuter_SPOS, SPOS
*Distribution, name=Ori-1-DiscOrient, location=ELEMENT, Table=Ori-1-DiscOrient_Table
** Description: Distribution generated from Discrete Orientation
,           1.,           0.,           0.,           0.,           1.,           0.
1,          -1.,           0.,           0.,           0.,           1.,           0.
2,          -1.,           0.,           0.,           0.,           1.,           0.
3,          -1.,           0.,           0.,           0.,           1.,           0.
4,          -1.,           0.,           0.,           0.,           1.,           0.
5,          -1.,           0.,           0.,           0.,           1.,           0.
6,          -1.,           0.,           0.,           0.,           1.,           0.
7,          -1.,           0.,           0.,           0.,           1.,           0.
8,          -1.,           0.,           0.,           0.,           1.,           0.
9,          -1.,           0.,           0.,           0.,           1.,           0.
10,          -1.,           0.,           0.,           0.,           1.,           0.
11,          -1.,           0.,           0.,           0.,           1.,           0.
12,          -1.,           0.,           0.,           0.,           1.,           0.
13,          -1.,           0.,           0.,           0.,           1.,           0.
14,          -1.,           0.,           0.,           0.,           1.,           0.
15,          -1.,           0.,           0.,           0.,           1.,           0.
16,          -1.,           0.,           0.,           0.,           1.,           0.
17,          -1.,           0.,           0.,           0.,           1.,           0.
18,          -1.,           0.,           0.,           0.,           1.,           0.
19,          -1.,           0.,           0.,           0.,           1.,           0.
20,          -1.,           0.,           0.,           0.,           1.,           0.
** ... 3526 like lines cut
*Orientation, name=Ori-1, system=RECTANGULAR
Ori-1-DiscOrient
3, 0.
** Region: (LU-1: Generated From Layup)
*Elset, elset=LU-1, generate
    1,  3546,     1
** Section: LU-1
*Shell Section, elset=LU-1, composite, orientation=Ori-1, layup=LU
0.6, 3, CFRP, 0., Ply-1
0.6, 3, CFRP, 0., Ply-2
0.6, 3, CFRP, 0., Ply-3
0.6, 3, CFRP, -45., Ply-4
0.6, 3, CFRP, 45., Ply-5
0.6, 3, CFRP, 0., Ply-6
0.6, 3, CFRP, 0., Ply-7
0.6, 3, CFRP, 0., Ply-8
0.6, 3, CFRP, 45., Ply-9
0.6, 3, CFRP, -45., Ply-10
0.6, 3, CFRP, 0., Ply-11
0.6, 3, CFRP, 0., Ply-12
0.6, 3, CFRP, 0., Ply-13
*End Part
**  
**
** ASSEMBLY
**
*Assembly, name=Assembly
**  
*Instance, name=Plate, part=Plate
*End Instance
**  
*Instance, name=Bolt-1, part=Bolt
         50.,          50.,           0.
         50.,          50.,           0., 51.0000000126881,          50.,           0., 89.9999992730282
*Surface, type=REVOLUTION, name=Surface-Bolt-1
START,          10.,          20.
 LINE,          10.,         -20.
*End Instance
**  
*Instance, name=Bolt-2, part=Bolt
        100.,          50.,           0.
        100.,          50.,           0., 101.000000012688,          50.,           0., 89.9999992730282
*Surface, type=REVOLUTION, name=Surface-Bolt-2
START,          10.,          20.
 LINE,          10.,         -20.
*End Instance
**  
*Node
      1,          50.,          50.,           0.
*Node
      2,         100.,          50.,           0.
*Nset, nset=Edges-Hole-Bolt-1, instance=Plate
   4,   5,  10,  11,  41,  42,  43,  76,  77,  86,  87,  88,  89, 106, 107
*Elset, elset=Edges-Hole-Bolt-1, instance=Plate
  30,  31,  32,  33, 136, 137, 138, 150, 151, 152, 153, 154, 227, 228, 327
*Nset, nset=Edges-Hole-Bolt-2, instance=Plate
   2,   3,   7,  17,  28,  29,  30,  31,  56,  57, 126, 127, 128, 129, 670, 671
 672, 673
*Elset, elset=Edges-Hole-Bolt-2, instance=Plate
   14,   16,   18,   20,   21,   55,   57,   59,  328, 1757, 1758, 1759, 1760, 1768, 1769, 1770
 1771, 1772
*Nset, nset=RP-1
 1,
*Nset, nset=RP-2
 2,
*Nset, nset="edges at x=0", instance=Plate
  12,  13,  14,  98,  99, 100, 101, 102, 103, 104, 105, 117, 118, 119, 120, 121
 122, 123, 124, 125
*Elset, elset="edges at x=0", instance=Plate
 162, 170, 178, 186, 187, 188, 189, 190, 191, 254, 262, 270, 278, 286, 294, 302
 310, 318, 319
*Nset, nset="edges at x=L", instance=Plate
  15,  16,  18, 308, 309, 310, 311, 312, 313, 314, 674, 675, 676, 677, 678, 679
 680, 681, 682
*Elset, elset="edges at x=L", instance=Plate
  510,  688,  866, 1044, 1045, 1046, 1047, 1048, 1953, 2130, 2307, 2484, 2485, 2486, 2487, 2488
 2489, 2490
*Elset, elset="_surface at x=L_E2", internal, instance=Plate
  510,  688,  866, 1044, 1953, 2130, 2307, 2484
*Elset, elset="_surface at x=L_E1", internal, instance=Plate
 1045, 1046, 1047, 1048, 2485, 2486, 2487, 2488, 2489, 2490
*Surface, type=ELEMENT, name="surface at x=L"
"_surface at x=L_E2", E2
"_surface at x=L_E1", E1
*Surface, type=NODE, name=Edges-Hole-Bolt-1_CNS_, internal
Edges-Hole-Bolt-1, 1.
*Surface, type=NODE, name=Edges-Hole-Bolt-2_CNS_, internal
Edges-Hole-Bolt-2, 1.
** Constraint: Constraint-Bolt-1
*Rigid Body, ref node=RP-1, analytical surface=Bolt-1.Surface-Bolt-1
** Constraint: Constraint-Bolt-2
*Rigid Body, ref node=RP-2, analytical surface=Bolt-2.Surface-Bolt-2
*End Assembly
*Distribution Table, name=Ori-1-DiscOrient_Table
coord3D, coord3D
** 
** MATERIALS
** 
*Material, name=CFRP
*Density
 1.6e-09,
*Elastic, type=ENGINEERING CONSTANTS
130000.,10000.,10000.,  0.28,  0.28,   0.5, 4500., 4500.
 3500.,
*Fail Stress
1400., 900.,  30., 120.,  60., -0.5,   0.
** 
** INTERACTION PROPERTIES
** 
*Surface Interaction, name=Contact-properties
1.,
** 
** BOUNDARY CONDITIONS
** 
** Name: BC-FIX-1 Type: Symmetry/Antisymmetry/Encastre
*Boundary
RP-1, ENCASTRE
** Name: BC-FIX-2 Type: Symmetry/Antisymmetry/Encastre
*Boundary
RP-2, ENCASTRE
** Name: support-z at x=0 Type: Displacement/Rotation
*Boundary
"edges at x=0", 3, 3
** Name: support-z at x=L Type: Displacement/Rotation
*Boundary
"edges at x=L", 3, 3
** 
** INTERACTIONS
** 
** Interaction: ContactBolt-1
*Contact Pair, interaction=Contact-properties, type=SURFACE TO SURFACE
Edges-Hole-Bolt-1_CNS_, Bolt-1.Surface-Bolt-1
** Interaction: ContactBolt-2
*Contact Pair, interaction=Contact-properties, type=SURFACE TO SURFACE
Edges-Hole-Bolt-2_CNS_, Bolt-2.Surface-Bolt-2
** ----------------------------------------------------------------
** 
** STEP: Step-1
** 
*Step, name=Step-1, nlgeom=NO
*Static
1., 1., 1e-05, 1.
** 
** LOADS
** 
** Name: Nx   Type: Shell edge load
*Dsload
"surface at x=L", EDLD, 1000., 1., 0., 0.
** 
** OUTPUT REQUESTS
** 
*Restart, write, frequency=0
** 
** FIELD OUTPUT: F-Output-2
** 
*Output, field
*Element Output, elset=Plate.LU-1, directions=YES
1, 2, 3, 4, 5, 6, 7, 8, 9, 10, 11, 12, 13, 14, 15, 16
CFAILURE, E, S, SE, SF
*Element Output, elset=Plate.LU-1, directions=YES
17, 18, 19, 20, 21, 22, 23, 24, 25, 26, 27, 28, 29, 30, 31, 32
CFAILURE, E, S, SE, SF
*Element Output, elset=Plate.LU-1, directions=YES
33, 34, 35, 36, 37, 38, 39
CFAILURE, E, S, SE, SF
** 
** FIELD OUTPUT: F-Output-1
** 
*Output, field, variable=PRESELECT
** 
** HISTORY OUTPUT: H-Output-1
** 
*Output, history, variable=PRESELECT
*End Step
