*Heading
** Job name: A4 Model name: A4
** Generated by: Abaqus/CAE 2022
*Preprint, echo=NO, model=NO, history=NO, contact=NO
**
** PARTS
**
*Part, name=Bolt
*End Part
**  
*Part, name=Plate
*Node
      1,         100.,         100.,           0.
      2,         100.,          50.,           0.
      3,        1000.,          50.,           0.
      4,        1000.,         100.,           0.
      5,         100.,           0.,           0.
      6,          60.,          50.,           0.
      7,          50.,          40.,           0.
      8,          50.,           0.,           0.
      9,          40.,          50.,           0.
     10,           0.,          50.,           0.
     11,           0.,           0.,           0.
     12,          50.,          60.,           0.
     13,          50.,         100.,           0.
     14,           0.,         100.,           0.
     15,        1000.,           0.,           0.
     16,         100.,          95.,           0.
     17,         100.,          90.,           0.
     18,         100.,          85.,           0.
     19,         100.,          80.,           0.
     20,         100.,          75.,           0.
** ... 4188 like lines cut
*Element, type=S4R
   1,    1,   16,  683,  391
   2,   16,   17,  684,  683
   3,   17,   18,  685,  684
   4,   18,   19,  686,  685
   5,   19,   20,  687,  686
   6,   20,   21,  688,  687
   7,   21,   22,  689,  688
   8,   22,   23,  690,  689
   9,   23,   24,  691,  690
  10,   24,    2,   25,  691
  11,  391,  683,  692,  390
  12,  683,  684,  693,  692
  13,  684,  685,  694,  693
  14,  685,  686,  695,  694
  15,  686,  687,  696,  695
  16,  687,  688,  697,  696
  17,  688,  689,  698,  697
  18,  689,  690,  699,  698
  19,  690,  691,  700,  699
  20,  691,   25,   26,  700
** ... 3962 like lines cut
*Nset, nset=faces-all, generate
    1,  4208,     1
*Elset, elset=faces-all, generate
    1,  3982,     1
*Nset, nset=faces-at-bolts
    1,    2,    5,    6,    7,    8,    9,   10,   11,   12,   13,   14,   16,   17,   18,   19
   20,   21,   22,   23,   24,  392,  393,  394,  395,  396,  397,  398,  399,  400,  401,  402
  403,  404,  405,  406,  407,  408,  409,  410,  411,  412,  413,  414,  415,  416,  417,  418
  419,  420,  421,  422,  423,  424,  425,  426,  427,  428,  429,  430,  431,  432,  433,  434
  435,  436,  437,  438,  439,  440,  441,  442,  443,  444,  445,  446,  447,  448,  449,  450
  451,  452,  453,  454,  455,  456,  457,  458,  459,  460,  461,  462,  463,  464,  465,  466
  467,  468,  469,  470,  471,  472,  473,  474,  475,  476,  477,  478,  479,  480,  481,  482
  483,  484,  673,  674,  675,  676,  677,  678,  679,  680,  681,  682, 2294, 2295, 2296, 2297
 2298, 2299, 2300, 2301, 2302, 2303, 2304, 2305, 2306, 2307, 2308, 2309, 2310, 2311, 2312, 2313
 2314, 2315, 2316, 2317, 2318, 2319, 2320, 2321, 2322, 2323, 2324, 2325, 2326, 2327, 2328, 2329
 2330, 2331, 2332, 2333, 2334, 2335, 2336, 2337, 2338, 2339, 2340, 2341, 2342, 2343, 2344, 2345
 2346, 2347, 2348, 2349, 2350, 2351, 2352, 2353, 2354, 2355, 2356, 2357, 2358, 2359, 2360, 2361
 2362, 2363, 2364, 2365, 2366, 2367, 2368, 2369, 2370, 2371, 2372, 2373, 2374, 2375, 2376, 2377
 2378, 2379, 2380, 2381, 2382, 2383, 2384, 2385, 2386, 2387, 2388, 2389, 2390, 2391, 2392, 2393
 2394, 2395, 2396, 2397, 2398, 2399, 2400, 2401, 2402, 2403, 2404, 2405, 2406, 2407, 2408, 2409
 2410, 2411, 2412, 2413, 2414, 2415, 2416, 2417, 2418, 2419, 2420, 2421, 2422, 2423, 2424, 2425
 2426, 2427, 2428, 2429, 2430, 2431, 2432, 2433, 2434, 2435, 2436, 2437, 2438, 2439, 2440, 2441
 2442, 2443, 2444, 2445, 2446, 2447, 2448, 2449, 2450, 2451, 2452, 2453, 2454, 2455, 2456, 2457
 2458, 2459, 2460, 2461, 2462, 2463, 2464, 2465, 2466, 2467, 2468, 2469, 2470, 2471, 2472, 2473
 2474, 2475, 2476, 2477, 2478, 2479, 2480, 2481, 2482, 2483, 2484, 2485, 2486, 2487, 2488, 2489
** ... 7 like lines cut
*Elset, elset=faces-at-bolts
 1801, 1802, 1803, 1804, 1805, 1806, 1807, 1808, 1809, 1810, 1811, 1812, 1813, 1814, 1815, 1816
 1817, 1818, 1819, 1820, 1821, 1822, 1823, 1824, 1825, 1826, 1827, 1828, 1829, 1830, 1831, 1832
 1833, 1834, 1835, 1836, 1837, 1838, 1839, 1840, 1841, 1842, 1843, 1844, 1845, 1846, 1847, 1848
 1849, 1850, 1851, 1852, 1853, 1854, 1855, 1856, 1857, 1858, 1859, 1860, 1861, 1862, 1863, 1864
 1865, 1866, 1867, 1868, 1869, 1870, 1871, 1872, 1873, 1874, 1875, 1876, 1877, 1878, 1879, 1880
 1881, 1882, 1883, 1884, 1885, 1886, 1887, 1888, 1889, 1890, 1891, 1892, 1893, 1894, 1895, 1896
 1897, 1898, 1899, 1900, 1901, 1902, 1903, 1904, 1905, 1906, 1907, 1908, 1909, 1910, 1911, 1912
 1913, 1914, 1915, 1916, 1917, 1918, 1919, 1920, 1921, 1922, 1923, 1924, 1925, 1926, 1927, 1928
 1929, 1930, 1931, 1932, 1933, 1934, 1935, 1936, 1937, 1938, 1939, 1940, 1941, 1942, 1943, 1944
 1945, 1946, 1947, 1948, 1949, 1950, 1951, 1952, 1953, 1954, 1955, 1956, 1957, 1958, 1959, 1960
 1961, 1962, 1963, 1964, 1965, 1966, 1967, 1968, 1969, 1970, 1971, 1972, 1973, 1974, 1975, 1976
 1977, 1978, 1979, 1980, 1981, 1982, 1983, 1984, 1985, 1986, 1987, 1988, 1989, 1990, 1991, 1992
 1993, 1994, 1995, 1996, 1997, 1998, 1999, 2000, 2001, 2002, 2003, 2004, 2005, 2006, 2007, 2008
 2009, 2010, 2011, 2012, 2013, 2014, 2015, 2016, 2017, 2018, 2019, 2020, 2021, 2022, 2023, 2024
 2025, 2026, 2027, 2028, 2029, 2030, 2031, 2032, 2033, 2034, 2035, 2036, 2037, 2038, 2039, 2040
 2041, 2042, 2043, 2044, 2045, 2046, 2047, 2048, 2049, 2050, 2051, 2052, 2053, 2054, 2055, 2056
 2057, 2058, 2059, 2060, 2061, 2062, 2063, 2064, 2065, 2066, 2067, 2068, 2069, 2070, 2071, 2072
 2073, 2074, 2075, 2076, 2077, 2078, 2079, 2080, 2081, 2082, 2083, 2084, 2085, 2086, 2087, 2088
 2089, 2090, 2091, 3892, 3893, 3894, 3895, 3896, 3897, 3898, 3899, 3900, 3901, 3902, 3903, 3904
 3905, 3906, 3907, 3908, 3909, 3910, 3911, 3912, 3913, 3914, 3915, 3916, 3917, 3918, 3919, 3920
** ... 4 like lines cut
*Nset, nset=edge-prim-axis
   8,  11, 429, 430, 431, 432, 433, 434, 435, 436, 437
*Elset, elset=edge-prim-axis
 1901, 1902, 1944, 1952, 1960, 1968, 1976, 1984, 1992, 2000
*Elset, elset=_SurfOuter_SPOS, internal, generate
    1,  3982,     1
*Surface, type=ELEMENT, name=SurfOuter
_SurfOuter_SPOS, SPOS
*Distribution, name=Ori-1-DiscOrient, location=ELEMENT, Table=Ori-1-DiscOrient_Table
** Description: Distribution generated from Discrete Orientation
,           1.,           0.,           0.,           0.,           1.,           0.
1,           1.,           0.,           0.,           0.,           1.,           0.
2,           1.,           0.,           0.,           0.,           1.,           0.
3,           1.,           0.,           0.,           0.,           1.,           0.
4,           1.,           0.,           0.,           0.,           1.,           0.
5,           1.,           0.,           0.,           0.,           1.,           0.
6,           1.,           0.,           0.,           0.,           1.,           0.
7,           1.,           0.,           0.,           0.,           1.,           0.
8,           1.,           0.,           0.,           0.,           1.,           0.
9,           1.,           0.,           0.,           0.,           1.,           0.
10,           1.,           0.,           0.,           0.,           1.,           0.
11,           1.,           0.,           0.,           0.,           1.,           0.
12,           1.,           0.,           0.,           0.,           1.,           0.
13,           1.,           0.,           0.,           0.,           1.,           0.
14,           1.,           0.,           0.,           0.,           1.,           0.
15,           1.,           0.,           0.,           0.,           1.,           0.
16,           1.,           0.,           0.,           0.,           1.,           0.
17,           1.,           0.,           0.,           0.,           1.,           0.
18,           1.,           0.,           0.,           0.,           1.,           0.
19,           1.,           0.,           0.,           0.,           1.,           0.
20,           1.,           0.,           0.,           0.,           1.,           0.
** ... 3962 like lines cut
*Orientation, name=Ori-1, system=RECTANGULAR
Ori-1-DiscOrient
3, 0.
** Region: (LU-1: Generated From Layup)
*Elset, elset=LU-1, generate
    1,  3982,     1
** Section: LU-1
*Shell Section, elset=LU-1, composite, orientation=Ori-1, layup=LU
0.6, 3, CFRP, 0., Ply-1
0.6, 3, CFRP, 0., Ply-2
0.6, 3, CFRP, 0., Ply-3
0.6, 3, CFRP, -45., Ply-4
0.6, 3, CFRP, 45., Ply-5
0.6, 3, CFRP, 0., Ply-6
0.6, 3, CFRP, 0., Ply-7
0.6, 3, CFRP, 0., Ply-8
0.6, 3, CFRP, 45., Ply-9
0.6, 3, CFRP, -45., Ply-10
0.6, 3, CFRP, 0., Ply-11
0.6, 3, CFRP, 0., Ply-12
0.6, 3, CFRP, 0., Ply-13
*End Part
**  
**
** ASSEMBLY
**
*Assembly, name=Assembly
**  
*Instance, name=Plate, part=Plate
*End Instance
**  
*Instance, name=Bolt, part=Bolt
         50.,          50.,           0.
         50.,          50.,           0., 51.0000000126881,          50.,           0., 89.9999992730282
*Surface, type=REVOLUTION, name=Surface-Bolt
START,          10.,          20.
 LINE,          10.,         -20.
*End Instance
**  
*Node
      1,          50.,          50.,           0.
*Nset, nset=Edges-Hole, instance=Plate
   6,   7,   9,  12, 418, 419, 420, 438, 439, 440, 458, 459, 681, 682
*Elset, elset=Edges-Hole, instance=Plate
 1881, 1882, 1883, 1884, 1917, 1918, 1919, 1920, 2001, 2090, 2091, 3980, 3981, 3982
*Nset, nset=RP
 1,
*Nset, nset="edges at x=0", instance=Plate
  10,  11,  14, 449, 450, 451, 452, 453, 454, 455, 456, 457, 476, 477, 478, 479
 480, 481, 482, 483, 484
*Elset, elset="edges at x=0", instance=Plate
 1928, 1936, 1937, 1938, 1939, 1940, 1941, 1942, 1943, 1944, 2017, 2025, 2033, 2041, 2049, 2057
 2065, 2073, 2074, 2075
*Nset, nset="edges at x=L", instance=Plate
   3,   4,  15, 204, 205, 206, 207, 208, 209, 210, 211, 212, 664, 665, 666, 667
 668, 669, 670, 671, 672
*Elset, elset="edges at x=L", instance=Plate
 1791, 1792, 1793, 1794, 1795, 1796, 1797, 1798, 1799, 1800, 3882, 3883, 3884, 3885, 3886, 3887
 3888, 3889, 3890, 3891
*Elset, elset="_surface at x=L_E3", internal, instance=Plate
 1791, 1792, 1793, 1794, 1795, 1796, 1797, 1798, 1799, 1800, 3882, 3883, 3884, 3885, 3886, 3887
 3888, 3889, 3890, 3891
*Surface, type=ELEMENT, name="surface at x=L"
"_surface at x=L_E3", E3
*Surface, type=NODE, name=Edges-Hole_CNS_, internal
Edges-Hole, 1.
** Constraint: Constraint-Bolt
*Rigid Body, ref node=RP, analytical surface=Bolt.Surface-Bolt
*End Assembly
*Distribution Table, name=Ori-1-DiscOrient_Table
coord3D, coord3D
** 
** MATERIALS
** 
*Material, name=CFRP
*Density
 1.6e-09,
*Elastic, type=ENGINEERING CONSTANTS
130000.,10000.,10000.,  0.28,  0.28,   0.5, 4500., 4500.
 3500.,
*Fail Stress
1400., 900.,  30., 120.,  60., -0.5,   0.
** 
** INTERACTION PROPERTIES
** 
*Surface Interaction, name=Contact-properties
1.,
** 
** BOUNDARY CONDITIONS
** 
** Name: BC-FIX Type: Symmetry/Antisymmetry/Encastre
*Boundary
RP, ENCASTRE
** Name: support-z at x=0 Type: Displacement/Rotation
*Boundary
"edges at x=0", 3, 3
** Name: support-z at x=L Type: Displacement/Rotation
*Boundary
"edges at x=L", 3, 3
** 
** INTERACTIONS
** 
** Interaction: ContactBolt
*Contact Pair, interaction=Contact-properties, type=SURFACE TO SURFACE
Edges-Hole_CNS_, Bolt.Surface-Bolt
** ----------------------------------------------------------------
** 
** STEP: Step-1
** 
*Step, name=Step-1, nlgeom=NO
*Static
1., 1., 1e-05, 1.
** 
** LOADS
** 
** Name: Nx   Type: Shell edge load
*Dsload
"surface at x=L", EDLD, 1000., 1., 0., 0.
** 
** OUTPUT REQUESTS
** 
*Restart, write, frequency=0
** 
** FIELD OUTPUT: F-Output-2
** 
*Output, field
*Element Output, elset=Plate.LU-1, directions=YES
1, 2, 3, 4, 5, 6, 7, 8, 9, 10, 11, 12, 13, 14, 15, 16
CFAILURE, E, S, SE, SF
*Element Output, elset=Plate.LU-1, directions=YES
17, 18, 19, 20, 21, 22, 23, 24, 25, 26, 27, 28, 29, 30, 31, 32
CFAILURE, E, S, SE, SF
*Element Output, elset=Plate.LU-1, directions=YES
33, 34, 35, 36, 37, 38, 39
CFAILURE, E, S, SE, SF
** 
** FIELD OUTPUT: F-Output-1
** 
*Output, field, variable=PRESELECT
** 
** HISTORY OUTPUT: H-Output-1
** 
*Output, history, variable=PRESELECT
*End Step
