*Heading
** Job name: single_bolt Model name: A4
** Generated by: Abaqus/CAE 2022
*Preprint, echo=NO, model=NO, history=NO, contact=NO
**
** PARTS
**
*Part, name=Bolt
*End Part
**  
*Part, name=Plate
*Node
      1,          50.,           0.,           0.
      2,          50.,          40.,           0.
      3,          40.,          50.,           0.
      4,           0.,          50.,           0.
      5,           0.,           0.,           0.
      6,          50.,          60.,           0.
      7,          50.,         100.,           0.
      8,           0.,         100.,           0.
      9,        1000.,           0.,           0.
     10,        1000.,          50.,           0.
     11,          60.,          50.,           0.
     12,        1000.,         100.,           0.
     13,           5.,           0.,           0.
     14,          10.,           0.,           0.
     15,          15.,           0.,           0.
     16,          20.,           0.,           0.
     17,          25.,           0.,           0.
     18,          30.,           0.,           0.
     19,          35.,           0.,           0.
     20,          40.,           0.,           0.
** ... 4188 like lines cut
*Element, type=S4R
  1,  20,  21, 682, 673
  2,  21,   1,  22, 682
  3, 673, 682, 683, 672
  4, 682,  22,  23, 683
  5, 672, 683, 684, 671
  6, 683,  23,  24, 684
  7, 671, 684, 685, 670
  8, 684,  24,  25, 685
  9, 670, 685, 686, 669
 10, 685,  25,  26, 686
 11, 669, 686, 687, 668
 12, 686,  26,  27, 687
 13, 668, 687, 688, 667
 14, 687,  27,  28, 688
 15, 667, 688, 666, 665
 16, 688,  28,  29, 666
 17,  29,   2,  30, 666
 18, 666,  30,  31, 665
 19,  31,  32, 674, 665
 20,  32,   3,  33, 674
** ... 3962 like lines cut
*Nset, nset=faces-all, generate
    1,  4208,     1
*Elset, elset=faces-all, generate
    1,  3982,     1
*Nset, nset=edge-prim-axis
  1,  5, 13, 14, 15, 16, 17, 18, 19, 20, 21
*Elset, elset=edge-prim-axis
   1,   2,  44,  52,  60,  68,  76,  84,  92, 100
*Elset, elset=_SurfOuter_SPOS, internal, generate
    1,  3982,     1
*Surface, type=ELEMENT, name=SurfOuter
_SurfOuter_SPOS, SPOS
*Distribution, name=Ori-1-DiscOrient, location=ELEMENT, Table=Ori-1-DiscOrient_Table
** Description: Distribution generated from Discrete Orientation
,           1.,           0.,           0.,           0.,           1.,           0.
1,          -1.,           0.,           0.,           0.,           1.,           0.
2,          -1.,           0.,           0.,           0.,           1.,           0.
3,          -1.,           0.,           0.,           0.,           1.,           0.
4,          -1.,           0.,           0.,           0.,           1.,           0.
5,          -1.,           0.,           0.,           0.,           1.,           0.
6,          -1.,           0.,           0.,           0.,           1.,           0.
7,          -1.,           0.,           0.,           0.,           1.,           0.
8,          -1.,           0.,           0.,           0.,           1.,           0.
9,          -1.,           0.,           0.,           0.,           1.,           0.
10,          -1.,           0.,           0.,           0.,           1.,           0.
11,          -1.,           0.,           0.,           0.,           1.,           0.
12,          -1.,           0.,           0.,           0.,           1.,           0.
13,          -1.,           0.,           0.,           0.,           1.,           0.
14,          -1.,           0.,           0.,           0.,           1.,           0.
15,          -1.,           0.,           0.,           0.,           1.,           0.
16,          -1.,           0.,           0.,           0.,           1.,           0.
17,          -1.,           0.,           0.,           0.,           1.,           0.
18,          -1.,           0.,           0.,           0.,           1.,           0.
19,          -1.,           0.,           0.,           0.,           1.,           0.
20,          -1.,           0.,           0.,           0.,           1.,           0.
** ... 3962 like lines cut
*Orientation, name=Ori-1, system=RECTANGULAR
Ori-1-DiscOrient
3, 0.
** Region: (LU-1: Generated From Layup)
*Elset, elset=LU-1, generate
    1,  3982,     1
** Section: LU-1
*Shell Section, elset=LU-1, composite, orientation=Ori-1, layup=LU
0.6, 3, CFRP, 0., Ply-1
0.6, 3, CFRP, 0., Ply-2
0.6, 3, CFRP, 0., Ply-3
0.6, 3, CFRP, -45., Ply-4
0.6, 3, CFRP, 45., Ply-5
0.6, 3, CFRP, 0., Ply-6
0.6, 3, CFRP, 0., Ply-7
0.6, 3, CFRP, 0., Ply-8
0.6, 3, CFRP, 45., Ply-9
0.6, 3, CFRP, -45., Ply-10
0.6, 3, CFRP, 0., Ply-11
0.6, 3, CFRP, 0., Ply-12
0.6, 3, CFRP, 0., Ply-13
*End Part
**  
**
** ASSEMBLY
**
*Assembly, name=Assembly
**  
*Instance, name=Plate, part=Plate
*End Instance
**  
*Instance, name=Bolt-1, part=Bolt
         50.,          50.,           0.
         50.,          50.,           0., 51.0000000126881,          50.,           0., 89.9999992730282
*Surface, type=REVOLUTION, name=Surface-Bolt-1
START,          10.,          20.
 LINE,          10.,         -20.
*End Instance
**  
*Node
      1,          50.,          50.,           0.
*Nset, nset=Edges-Hole-Bolt-1, instance=Plate
   2,   3,   6,  11,  30,  31,  32,  50,  51,  77,  78, 653, 654, 655
*Elset, elset=Edges-Hole-Bolt-1, instance=Plate
   17,   18,   19,   20,  101,  190,  191,  192, 2081, 2082, 2099, 2100, 2101, 2102
*Nset, nset=RP-1
 1,
*Nset, nset="edges at x=0", instance=Plate
  4,  5,  8, 41, 42, 43, 44, 45, 46, 47, 48, 49, 68, 69, 70, 71
 72, 73, 74, 75, 76
*Elset, elset="edges at x=0", instance=Plate
  28,  36,  37,  38,  39,  40,  41,  42,  43,  44, 117, 125, 133, 141, 149, 157
 165, 173, 174, 175
*Nset, nset="edges at x=L", instance=Plate
   9,  10,  12, 267, 268, 269, 270, 271, 272, 273, 274, 275, 656, 657, 658, 659
 660, 661, 662, 663, 664
*Elset, elset="edges at x=L", instance=Plate
  388,  576,  764,  952, 1140, 1328, 1516, 1704, 1705, 1706, 2290, 2478, 2479, 2480, 2481, 2482
 2483, 2484, 2485, 2486
*Elset, elset="_surface at x=L_E2", internal, instance=Plate
  388,  576,  764,  952, 1140, 1328, 1516, 1704, 2290, 2478
*Elset, elset="_surface at x=L_E1", internal, instance=Plate
 1705, 1706, 2479, 2480, 2481, 2482, 2483, 2484, 2485, 2486
*Surface, type=ELEMENT, name="surface at x=L"
"_surface at x=L_E2", E2
"_surface at x=L_E1", E1
*Surface, type=NODE, name=Edges-Hole-Bolt-1_CNS_, internal
Edges-Hole-Bolt-1, 1.
** Constraint: Constraint-Bolt-1
*Rigid Body, ref node=RP-1, analytical surface=Bolt-1.Surface-Bolt-1
*End Assembly
*Distribution Table, name=Ori-1-DiscOrient_Table
coord3D, coord3D
** 
** MATERIALS
** 
*Material, name=CFRP
*Density
 1.6e-09,
*Elastic, type=ENGINEERING CONSTANTS
130000.,10000.,10000.,  0.28,  0.28,   0.5, 4500., 4500.
 3500.,
*Fail Stress
1400., 900.,  30., 120.,  60., -0.5,   0.
** 
** INTERACTION PROPERTIES
** 
*Surface Interaction, name=Contact-properties
1.,
** 
** BOUNDARY CONDITIONS
** 
** Name: BC-FIX-1 Type: Symmetry/Antisymmetry/Encastre
*Boundary
RP-1, ENCASTRE
** Name: support-z at x=0 Type: Displacement/Rotation
*Boundary
"edges at x=0", 3, 3
** Name: support-z at x=L Type: Displacement/Rotation
*Boundary
"edges at x=L", 3, 3
** 
** INTERACTIONS
** 
** Interaction: ContactBolt-1
*Contact Pair, interaction=Contact-properties, type=SURFACE TO SURFACE
Edges-Hole-Bolt-1_CNS_, Bolt-1.Surface-Bolt-1
** ----------------------------------------------------------------
** 
** STEP: Step-1
** 
*Step, name=Step-1, nlgeom=NO
*Static
1., 1., 1e-05, 1.
** 
** LOADS
** 
** Name: Nx   Type: Shell edge load
*Dsload
"surface at x=L", EDLD, 1000., 1., 0., 0.
** 
** OUTPUT REQUESTS
** 
*Restart, write, frequency=0
** 
** FIELD OUTPUT: F-Output-2
** 
*Output, field
*Element Output, elset=Plate.LU-1, directions=YES
1, 2, 3, 4, 5, 6, 7, 8, 9, 10, 11, 12, 13, 14, 15, 16
CFAILURE, E, S, SE, SF
*Element Output, elset=Plate.LU-1, directions=YES
17, 18, 19, 20, 21, 22, 23, 24, 25, 26, 27, 28, 29, 30, 31, 32
CFAILURE, E, S, SE, SF
*Element Output, elset=Plate.LU-1, directions=YES
33, 34, 35, 36, 37, 38, 39
CFAILURE, E, S, SE, SF
** 
** FIELD OUTPUT: F-Output-1
** 
*Output, field, variable=PRESELECT
** 
** HISTORY OUTPUT: H-Output-1
** 
*Output, history, variable=PRESELECT
*End Step
