1

   Abaqus 2022                                  Date 30-apr-2025   Time 10:47:14
   For use by NORGES TEKNISK NATURVITENSKAPELIGE UNIVERSITET under license from Dassault Systemes or its subsidiary.

                                                                                 
                                                                                 
 STEP    1     INCREMENT     1     STEP TIME    0.00    


                        S T E P       1     S T A T I C   A N A L Y S I S


                                                                                          

     AUTOMATIC TIME CONTROL WITH -
          A SUGGESTED INITIAL TIME INCREMENT OF                 1.00    
          AND A TOTAL TIME PERIOD OF                            1.00    
          THE MINIMUM TIME INCREMENT ALLOWED IS                1.000E-05
          THE MAXIMUM TIME INCREMENT ALLOWED IS                 1.00    

     LINEAR EQUATION SOLVER TYPE         DIRECT SPARSE

 CONVERGENCE TOLERANCE PARAMETERS FOR FORCE    
     CRITERION FOR RESIDUAL FORCE     FOR A NONLINEAR PROBLEM          5.000E-03
     CRITERION FOR DISP.    CORRECTION IN A NONLINEAR PROBLEM          1.000E-02
     INITIAL VALUE OF TIME AVERAGE FORCE                               1.000E-02
     AVERAGE FORCE     IS TIME AVERAGE FORCE    
     ALTERNATE CRIT. FOR RESIDUAL FORCE     FOR A NONLINEAR PROBLEM    2.000E-02
     CRITERION FOR ZERO FORCE     RELATIVE TO TIME AVRG. FORCE         1.000E-05
     CRITERION FOR RESIDUAL FORCE     WHEN THERE IS ZERO FLUX          1.000E-05
     CRITERION FOR DISP.    CORRECTION WHEN THERE IS ZERO FLUX         1.000E-03
     CRITERION FOR RESIDUAL FORCE     FOR A LINEAR INCREMENT           1.000E-08
     FIELD CONVERSION RATIO                                             1.00    
     CRITERION FOR ZERO FORCE     REL. TO TIME AVRG. MAX. FORCE        1.000E-05
     CRITERION FOR ZERO DISP.    RELATIVE TO CHARACTERISTIC LENGTH     1.000E-08

 CONVERGENCE TOLERANCE PARAMETERS FOR MOMENT   
     CRITERION FOR RESIDUAL MOMENT    FOR A NONLINEAR PROBLEM          5.000E-03
     CRITERION FOR ROTATION CORRECTION IN A NONLINEAR PROBLEM          1.000E-02
     INITIAL VALUE OF TIME AVERAGE MOMENT                              1.000E-02
     AVERAGE MOMENT    IS TIME AVERAGE MOMENT   
     ALTERNATE CRIT. FOR RESIDUAL MOMENT    FOR A NONLINEAR PROBLEM    2.000E-02
     CRITERION FOR ZERO MOMENT    RELATIVE TO TIME AVRG. MOMENT        1.000E-05
     CRITERION FOR RESIDUAL MOMENT    WHEN THERE IS ZERO FLUX          1.000E-05
     CRITERION FOR ROTATION CORRECTION WHEN THERE IS ZERO FLUX         1.000E-03
     CRITERION FOR RESIDUAL MOMENT    FOR A LINEAR INCREMENT           1.000E-08
     FIELD CONVERSION RATIO                                             1.00    
     CRITERION FOR ZERO MOMENT    REL. TO TIME AVRG. MAX. MOMENT       1.000E-05

     VOLUMETRIC STRAIN COMPATIBILITY TOLERANCE FOR HYBRID SOLIDS       1.000E-05
     AXIAL STRAIN COMPATIBILITY TOLERANCE FOR HYBRID BEAMS             1.000E-05
     TRANS. SHEAR STRAIN COMPATIBILITY TOLERANCE FOR HYBRID BEAMS      1.000E-05
     SOFT CONTACT CONSTRAINT COMPATIBILITY TOLERANCE FOR P>P0          5.000E-03
     SOFT CONTACT CONSTRAINT COMPATIBILITY TOLERANCE FOR P=0.0         0.100    
     CONTACT FORCE ERROR TOLERANCE FOR CONVERT SDI=YES                 1.00    
     DISPLACEMENT COMPATIBILITY TOLERANCE FOR DCOUP ELEMENTS           1.000E-05
     ROTATION COMPATIBILITY TOLERANCE FOR DCOUP ELEMENTS               1.000E-05

 EQUILIBRIUM WILL BE CHECKED FOR SEVERE DISCONTINUITY ITERATIONS

 TIME INCREMENTATION CONTROL PARAMETERS:
     FIRST EQUILIBRIUM ITERATION FOR CONSECUTIVE DIVERGENCE CHECK              4
     EQUILIBRIUM ITERATION AT WHICH LOG. CONVERGENCE RATE CHECK BEGINS         8
     EQUILIBRIUM ITERATION AFTER WHICH ALTERNATE RESIDUAL IS USED              9
     MAXIMUM EQUILIBRIUM ITERATIONS ALLOWED                                   16
     EQUILIBRIUM ITERATION COUNT FOR CUT-BACK IN NEXT INCREMENT               10
     MAXIMUM EQUILIB. ITERS IN TWO INCREMENTS FOR TIME INCREMENT INCREASE      4
     MAXIMUM ITERATIONS FOR SEVERE DISCONTINUITIES                            50
     MAXIMUM ATTEMPTS ALLOWED IN AN INCREMENT                                  5
     MAXIMUM DISCON. ITERS IN TWO INCREMENTS FOR TIME INCREMENT INCREASE      50
     MAXIMUM CONTACT AUGMENTATIONS FOR *SURFACE BEHAVIOR,AUGMENTED LAGRANGE   50
     CUT-BACK FACTOR AFTER DIVERGENCE                                 0.2500    
     CUT-BACK FACTOR FOR TOO SLOW CONVERGENCE                         0.5000    
     CUT-BACK FACTOR AFTER TOO MANY EQUILIBRIUM ITERATIONS            0.7500    
     CUT-BACK FACTOR AFTER TOO MANY SEVERE DISCONTINUITY ITERATIONS   0.2500    
     CUT-BACK FACTOR AFTER PROBLEMS IN ELEMENT ASSEMBLY               0.2500    
     INCREASE FACTOR AFTER TWO INCREMENTS THAT CONVERGE QUICKLY        1.500    
     MAX. TIME INCREMENT INCREASE FACTOR ALLOWED                       1.500    
     MAX. TIME INCREMENT INCREASE FACTOR ALLOWED (DYNAMICS)            1.250    
     MAX. TIME INCREMENT INCREASE FACTOR ALLOWED (DIFFUSION)           2.000    
     MINIMUM TIME INCREMENT RATIO FOR EXTRAPOLATION TO OCCUR          0.1000    
     MAX. RATIO OF TIME INCREMENT TO STABILITY LIMIT                   1.000    
     FRACTION OF STABILITY LIMIT FOR NEW TIME INCREMENT               0.9500    
     TIME INCREMENT INCREASE FACTOR BEFORE A TIME POINT                1.000    
     GLOBAL STABILIZATION CONTROL IS NOT USED

          PRINT OF INCREMENT NUMBER, TIME, ETC., EVERY    1  INCREMENTS

     THE MAXIMUM NUMBER OF INCREMENTS IN THIS STEP IS                     100

     LINEAR EXTRAPOLATION WILL BE USED

     CHARACTERISTIC ELEMENT LENGTH      5.03    

     DETAILS REGARDING ACTUAL SOLUTION WAVEFRONT REQUESTED

     DETAILED OUTPUT OF DIAGNOSTICS TO DATABASE REQUESTED

     PRINT OF INCREMENT NUMBER, TIME, ETC., TO THE MESSAGE FILE EVERY     1  INCREMENTS

     COLLECTING MODEL CONSTRAINT INFORMATION FOR OVERCONSTRAINT CHECKS

     COLLECTING STEP CONSTRAINT INFORMATION FOR OVERCONSTRAINT CHECKS

 ***WARNING: The 3-direction at one or more points in one or more layers in 
             3982 elements as defined in *ORIENTATION are in the opposite 
             direction to the element normals. Either the 1 or 2 and the 
             3-direction defined in *ORIENTATION will be reversed. The elements 
             have been identified in element set 
             WarnElem3DirOppElemNormalStep1Inc1.


  INCREMENT     1 STARTS. ATTEMPT NUMBER  1, TIME INCREMENT   1.00    
 
	SYMMETRIC DIRECT SPARSE SOLVER RUNNING ON
 	1 HOST:        1 MPI RANK  x 1 THREAD
 	NUMBER OF EQUATIONS:     25260
 	NUMBER OF RHS:           1
 	NUMBER OF FLOPS:         6.085e+08

     CHECK POINT   START OF SOLVER    

     CHECK POINT  END OF SOLVER       

       ELAPSED USER TIME (SEC)      =  0.20000    
       ELAPSED SYSTEM TIME (SEC)    =   0.0000    
       ELAPSED TOTAL CPU TIME (SEC) =  0.20000    
       ELAPSED WALLCLOCK TIME (SEC) =          0

                    7 SEVERE DISCONTINUITIES OCCURRED DURING THIS ITERATION.
                    4 POINTS CHANGED FROM OPEN TO CLOSED
                    3 POINTS CHANGED FROM CLOSED TO OPEN

               CONVERGENCE CHECKS FOR SEVERE DISCONTINUITY ITERATION     1

   MAX. PENETRATION ERROR 947.949E-03   AT NODE PLATE.32 OF CONTACT PAIR 
   (ASSEMBLY_EDGES-HOLE-BOLT-1_CNS_,ASSEMBLY_BOLT-1_SURFACE-BOLT-1)
   MAX. CONTACT FORCE ERROR -42.2562E+03  AT NODE PLATE.11 OF CONTACT PAIR 
   (ASSEMBLY_EDGES-HOLE-BOLT-1_CNS_,ASSEMBLY_BOLT-1_SURFACE-BOLT-1)
          PENETRATION ERROR TOO LARGE COMPARED TO DISPLACEMENT INCREMENT.

 AVERAGE FORCE                       839.       TIME AVG. FORCE        839.    
 LARGEST RESIDUAL FORCE             4.226E+04   AT NODE         11   DOF  1
   INSTANCE: PLATE                                                                           
 LARGEST INCREMENT OF DISP.         -23.0       AT NODE         12   DOF  2
   INSTANCE: PLATE                                                                           
 LARGEST CORRECTION TO DISP.        -23.0       AT NODE         12   DOF  2
   INSTANCE: PLATE                                                                           
          FORCE     EQUILIBRIUM NOT ACHIEVED WITHIN TOLERANCE.

 AVERAGE MOMENT                      8.21       TIME AVG. MOMENT       8.21    
 LARGEST RESIDUAL MOMENT            5.804E-10   AT NODE        276   DOF  5
   INSTANCE: PLATE                                                                           
 LARGEST INCREMENT OF ROTATION     -6.068E-02   AT NODE        653   DOF  6
   INSTANCE: PLATE                                                                           
 LARGEST CORRECTION TO ROTATION    -6.068E-02   AT NODE        653   DOF  6
   INSTANCE: PLATE                                                                           
          THE MOMENT    EQUILIBRIUM EQUATIONS HAVE CONVERGED
 
	SYMMETRIC DIRECT SPARSE SOLVER RUNNING ON
 	1 HOST:        1 MPI RANK  x 1 THREAD
 	NUMBER OF EQUATIONS:     25261
 	NUMBER OF RHS:           1
 	NUMBER OF FLOPS:         6.074e+08

     CHECK POINT   START OF SOLVER    

     CHECK POINT  END OF SOLVER       

       ELAPSED USER TIME (SEC)      =  0.10000    
       ELAPSED SYSTEM TIME (SEC)    =   0.0000    
       ELAPSED TOTAL CPU TIME (SEC) =  0.10000    
       ELAPSED WALLCLOCK TIME (SEC) =          1
 

 ***WARNING: THE SYSTEM MATRIX HAS 1 NEGATIVE EIGENVALUES.

     NEGATIVE EIGENVALUES MEAN THAT THE SYSTEM MATRIX IS NOT 
     POSITIVE DEFINITE:
     FOR EXAMPLE, A BIFURCATION (BUCKLING) LOAD MAY HAVE BEEN EXCEEDED.

                    2 SEVERE DISCONTINUITIES OCCURRED DURING THIS ITERATION.
                    1 POINTS CHANGED FROM OPEN TO CLOSED
                    1 POINTS CHANGED FROM CLOSED TO OPEN

               CONVERGENCE CHECKS FOR SEVERE DISCONTINUITY ITERATION     2

   MAX. PENETRATION ERROR 254.782E-03   AT NODE PLATE.51 OF CONTACT PAIR 
   (ASSEMBLY_EDGES-HOLE-BOLT-1_CNS_,ASSEMBLY_BOLT-1_SURFACE-BOLT-1)
   MAX. CONTACT FORCE ERROR -8.10780E+03 AT NODE PLATE.78 OF CONTACT PAIR 
   (ASSEMBLY_EDGES-HOLE-BOLT-1_CNS_,ASSEMBLY_BOLT-1_SURFACE-BOLT-1)
          PENETRATION ERROR TOO LARGE COMPARED TO DISPLACEMENT INCREMENT.

 AVERAGE FORCE                       838.       TIME AVG. FORCE        838.    
 LARGEST RESIDUAL FORCE            -6.888E+03   AT NODE         78   DOF  2
   INSTANCE: PLATE                                                                           
 LARGEST INCREMENT OF DISP.          35.1       AT NODE          9   DOF  2
   INSTANCE: PLATE                                                                           
 LARGEST CORRECTION TO DISP.         58.1       AT NODE        268   DOF  2
   INSTANCE: PLATE                                                                           
          FORCE     EQUILIBRIUM NOT ACHIEVED WITHIN TOLERANCE.

 AVERAGE MOMENT                      1.91       TIME AVG. MOMENT       1.91    
 LARGEST RESIDUAL MOMENT           -1.442E-09   AT NODE        276   DOF  5
   INSTANCE: PLATE                                                                           
 LARGEST INCREMENT OF ROTATION      5.480E-02   AT NODE         32   DOF  6
   INSTANCE: PLATE                                                                           
 LARGEST CORRECTION TO ROTATION     0.101       AT NODE        653   DOF  6
   INSTANCE: PLATE                                                                           
          THE MOMENT    EQUILIBRIUM EQUATIONS HAVE CONVERGED
 
	SYMMETRIC DIRECT SPARSE SOLVER RUNNING ON
 	1 HOST:        1 MPI RANK  x 1 THREAD
 	NUMBER OF EQUATIONS:     25261
 	NUMBER OF RHS:           1
 	NUMBER OF FLOPS:         6.074e+08

     CHECK POINT   START OF SOLVER    

     CHECK POINT  END OF SOLVER       

       ELAPSED USER TIME (SEC)      =  0.10000    
       ELAPSED SYSTEM TIME (SEC)    =   0.0000    
       ELAPSED TOTAL CPU TIME (SEC) =  0.10000    
       ELAPSED WALLCLOCK TIME (SEC) =          0
 

 ***WARNING: THE SYSTEM MATRIX HAS 1 NEGATIVE EIGENVALUES.
             EXPLANATIONS ARE SUGGESTED AFTER THE FIRST OCCURRENCE OF THIS MESSAGE.

                    1 SEVERE DISCONTINUITIES OCCURRED DURING THIS ITERATION.
                    1 POINTS CHANGED FROM OPEN TO CLOSED

               CONVERGENCE CHECKS FOR SEVERE DISCONTINUITY ITERATION     3

   MAX. PENETRATION ERROR 19.9156E-03  AT NODE PLATE.2 OF CONTACT PAIR 
   (ASSEMBLY_EDGES-HOLE-BOLT-1_CNS_,ASSEMBLY_BOLT-1_SURFACE-BOLT-1)
   MAX. CONTACT FORCE ERROR 76.5246      AT NODE PLATE.2 OF CONTACT PAIR 
   (ASSEMBLY_EDGES-HOLE-BOLT-1_CNS_,ASSEMBLY_BOLT-1_SURFACE-BOLT-1)
          THE CONTACT CONSTRAINT ERRORS ARE WITHIN THE TOLERANCES.

 AVERAGE FORCE                       835.       TIME AVG. FORCE        835.    
 LARGEST RESIDUAL FORCE              623.       AT NODE         51   DOF  1
   INSTANCE: PLATE                                                                           
 LARGEST INCREMENT OF DISP.         -4.03       AT NODE         12   DOF  2
   INSTANCE: PLATE                                                                           
 LARGEST CORRECTION TO DISP.        -39.1       AT NODE        268   DOF  2
   INSTANCE: PLATE                                                                           
          FORCE     EQUILIBRIUM NOT ACHIEVED WITHIN TOLERANCE.

 AVERAGE MOMENT                     0.537       TIME AVG. MOMENT      0.537    
 LARGEST RESIDUAL MOMENT            9.718E-10   AT NODE        276   DOF  5
   INSTANCE: PLATE                                                                           
 LARGEST INCREMENT OF ROTATION     -1.864E-02   AT NODE         51   DOF  6
   INSTANCE: PLATE                                                                           
 LARGEST CORRECTION TO ROTATION    -5.746E-02   AT NODE         32   DOF  6
   INSTANCE: PLATE                                                                           
          THE MOMENT    EQUILIBRIUM EQUATIONS HAVE CONVERGED
 
	SYMMETRIC DIRECT SPARSE SOLVER RUNNING ON
 	1 HOST:        1 MPI RANK  x 1 THREAD
 	NUMBER OF EQUATIONS:     25262
 	NUMBER OF RHS:           1
 	NUMBER OF FLOPS:         6.074e+08

     CHECK POINT   START OF SOLVER    

     CHECK POINT  END OF SOLVER       

       ELAPSED USER TIME (SEC)      =  0.20000    
       ELAPSED SYSTEM TIME (SEC)    =  0.10000    
       ELAPSED TOTAL CPU TIME (SEC) =  0.30000    
       ELAPSED WALLCLOCK TIME (SEC) =          1
 

 ***WARNING: THE SYSTEM MATRIX HAS 1 NEGATIVE EIGENVALUES.
             EXPLANATIONS ARE SUGGESTED AFTER THE FIRST OCCURRENCE OF THIS MESSAGE.

               CONVERGENCE CHECKS FOR EQUILIBRIUM ITERATION     1

   MAX. PENETRATION ERROR -143.354E-06   AT NODE PLATE.2 OF CONTACT PAIR 
   (ASSEMBLY_EDGES-HOLE-BOLT-1_CNS_,ASSEMBLY_BOLT-1_SURFACE-BOLT-1)
   MAX. CONTACT FORCE ERROR -550.831E-03   AT NODE PLATE.2 OF CONTACT PAIR 
   (ASSEMBLY_EDGES-HOLE-BOLT-1_CNS_,ASSEMBLY_BOLT-1_SURFACE-BOLT-1)
          THE CONTACT CONSTRAINTS HAVE CONVERGED.

 AVERAGE FORCE                       835.       TIME AVG. FORCE        835.    
 LARGEST RESIDUAL FORCE              4.33       AT NODE          2   DOF  1
   INSTANCE: PLATE                                                                           
 LARGEST INCREMENT OF DISP.          1.60       AT NODE         12   DOF  1
   INSTANCE: PLATE                                                                           
 LARGEST CORRECTION TO DISP.         3.67       AT NODE        268   DOF  2
   INSTANCE: PLATE                                                                           
          FORCE     EQUILIBRIUM NOT ACHIEVED WITHIN TOLERANCE.

 AVERAGE MOMENT                     0.456       TIME AVG. MOMENT      0.456    
 LARGEST RESIDUAL MOMENT           -9.225E-11   AT NODE        276   DOF  5
   INSTANCE: PLATE                                                                           
 LARGEST INCREMENT OF ROTATION     -1.455E-02   AT NODE         51   DOF  6
   INSTANCE: PLATE                                                                           
 LARGEST CORRECTION TO ROTATION     4.998E-03   AT NODE         32   DOF  6
   INSTANCE: PLATE                                                                           
          THE MOMENT    EQUILIBRIUM RESPONSE WAS LINEAR IN THIS INCREMENT
 
	SYMMETRIC DIRECT SPARSE SOLVER RUNNING ON
 	1 HOST:        1 MPI RANK  x 1 THREAD
 	NUMBER OF EQUATIONS:     25262
 	NUMBER OF RHS:           1
 	NUMBER OF FLOPS:         6.074e+08

     CHECK POINT   START OF SOLVER    

     CHECK POINT  END OF SOLVER       

       ELAPSED USER TIME (SEC)      =  0.20000    
       ELAPSED SYSTEM TIME (SEC)    =   0.0000    
       ELAPSED TOTAL CPU TIME (SEC) =  0.20000    
       ELAPSED WALLCLOCK TIME (SEC) =          0
 

 ***WARNING: THE SYSTEM MATRIX HAS 1 NEGATIVE EIGENVALUES.
             EXPLANATIONS ARE SUGGESTED AFTER THE FIRST OCCURRENCE OF THIS MESSAGE.

               CONVERGENCE CHECKS FOR EQUILIBRIUM ITERATION     2

   MAX. PENETRATION ERROR -10.9636E-09  AT NODE PLATE.6 OF CONTACT PAIR 
   (ASSEMBLY_EDGES-HOLE-BOLT-1_CNS_,ASSEMBLY_BOLT-1_SURFACE-BOLT-1)
   MAX. CONTACT FORCE ERROR -42.1271E-06  AT NODE PLATE.6 OF CONTACT PAIR 
   (ASSEMBLY_EDGES-HOLE-BOLT-1_CNS_,ASSEMBLY_BOLT-1_SURFACE-BOLT-1)
          THE CONTACT CONSTRAINTS HAVE CONVERGED.

 AVERAGE FORCE                       835.       TIME AVG. FORCE        835.    
 LARGEST RESIDUAL FORCE            -2.561E-04   AT NODE          6   DOF  1
   INSTANCE: PLATE                                                                           
 LARGEST INCREMENT OF DISP.          1.60       AT NODE         12   DOF  1
   INSTANCE: PLATE                                                                           
 LARGEST CORRECTION TO DISP.       -3.325E-02   AT NODE        270   DOF  2
   INSTANCE: PLATE                                                                           
 ESTIMATE OF DISP.    CORRECTION    1.968E-06
 FORCE     EQUILIB. ACCEPTED BASED ON SMALL RESIDUAL AND ESTIMATED CORRECTION

 AVERAGE MOMENT                     0.456       TIME AVG. MOMENT      0.456    
 LARGEST RESIDUAL MOMENT            1.290E-11   AT NODE        760   DOF  5
   INSTANCE: PLATE                                                                           
 LARGEST INCREMENT OF ROTATION     -1.459E-02   AT NODE         51   DOF  6
   INSTANCE: PLATE                                                                           
 LARGEST CORRECTION TO ROTATION    -4.373E-05   AT NODE          2   DOF  6
   INSTANCE: PLATE                                                                           
          THE MOMENT    EQUILIBRIUM EQUATIONS HAVE CONVERGED

 ITERATION SUMMARY FOR THE INCREMENT:   5 TOTAL ITERATIONS, OF WHICH
   3 ARE SEVERE DISCONTINUITY ITERATIONS AND  2 ARE EQUILIBRIUM ITERATIONS.

 TIME INCREMENT COMPLETED   1.00    ,  FRACTION OF STEP COMPLETED   1.00    
 STEP TIME COMPLETED        1.00    ,  TOTAL TIME COMPLETED         1.00    


          THE ANALYSIS HAS BEEN COMPLETED



     ANALYSIS SUMMARY:
     TOTAL OF          1  INCREMENTS
                       0  CUTBACKS IN AUTOMATIC INCREMENTATION
                       5  ITERATIONS INCLUDING CONTACT ITERATIONS IF PRESENT
                       5  PASSES THROUGH THE EQUATION SOLVER OF WHICH 
                       5  INVOLVE MATRIX DECOMPOSITION, INCLUDING
                       0  DECOMPOSITION(S) OF THE MASS MATRIX
                       1  REORDERING OF EQUATIONS TO MINIMIZE WAVEFRONT
                       0  ADDITIONAL RESIDUAL EVALUATIONS FOR LINE SEARCHES
                       0  ADDITIONAL OPERATOR EVALUATIONS FOR LINE SEARCHES
                       4  WARNING MESSAGES DURING USER INPUT PROCESSING
                       5  WARNING MESSAGES DURING ANALYSIS
                       0  ANALYSIS WARNINGS ARE NUMERICAL PROBLEM MESSAGES
                       4  ANALYSIS WARNINGS ARE NEGATIVE EIGENVALUE MESSAGES
                       0  ERROR MESSAGES



     JOB TIME SUMMARY
       USER TIME (SEC)      =   4.0000    
       SYSTEM TIME (SEC)    =  0.40000    
       TOTAL CPU TIME (SEC) =   4.4000    
       WALLCLOCK TIME (SEC) =          5
