*Heading
** Job name: transverse Model name: A4
** Generated by: Abaqus/CAE 2022
*Preprint, echo=NO, model=NO, history=NO, contact=NO
**
** PARTS
**
*Part, name=Bolt
*End Part
**  
*Part, name=Plate
*Node
      1,          50.,           0.,           0.
      2,          50.,          15.,           0.
      3,          40.,          25.,           0.
      4,           0.,          25.,           0.
      5,           0.,           0.,           0.
      6,          50.,          35.,           0.
      7,          50.,          50.,           0.
      8,           0.,          50.,           0.
      9,        1000.,           0.,           0.
     10,        1000.,          25.,           0.
     11,          60.,          25.,           0.
     12,        1000.,          50.,           0.
     13,           5.,           0.,           0.
     14,          10.,           0.,           0.
     15,          15.,           0.,           0.
     16,          20.,           0.,           0.
     17,          25.,           0.,           0.
     18,          30.,           0.,           0.
     19,          35.,           0.,           0.
     20,          40.,           0.,           0.
** ... 2188 like lines cut
*Element, type=S4R
 1,  20,  21, 647, 638
 2,  21,   1,  22, 647
 3, 638, 647, 648, 637
 4, 647,  22,  23, 648
 5, 637, 648, 636, 635
 6, 648,  23,  24, 636
 7,  24,   2,  25, 636
 8, 636,  25,  26, 635
 9,  26,  27, 639, 635
10,  27,   3,  28, 639
11,  28,  29, 649, 639
12,  29,  30, 650, 649
13,  30,  31, 651, 650
14,  31,  32, 652, 651
15,  32,  33, 653, 652
16,  33,  34, 654, 653
17,  34,  35, 655, 654
18,  35,   4,  36, 655
19, 639, 649, 646, 635
20, 649, 650, 645, 646
** ... 1972 like lines cut
*Nset, nset=faces-all, generate
    1,  2208,     1
*Elset, elset=faces-all, generate
    1,  1992,     1
*Nset, nset=edge-prim-axis
  1,  5, 13, 14, 15, 16, 17, 18, 19, 20, 21
*Elset, elset=edge-prim-axis
  1,  2, 29, 32, 35, 38, 41, 44, 47, 50
*Elset, elset=_SurfOuter_SPOS, internal, generate
    1,  1992,     1
*Surface, type=ELEMENT, name=SurfOuter
_SurfOuter_SPOS, SPOS
*Distribution, name=Ori-1-DiscOrient, location=ELEMENT, Table=Ori-1-DiscOrient_Table
** Description: Distribution generated from Discrete Orientation
,           1.,           0.,           0.,           0.,           1.,           0.
1,          -1.,           0.,           0.,           0.,           1.,           0.
2,          -1.,           0.,           0.,           0.,           1.,           0.
3,          -1.,           0.,           0.,           0.,           1.,           0.
4,          -1.,           0.,           0.,           0.,           1.,           0.
5,          -1.,           0.,           0.,           0.,           1.,           0.
6,          -1.,           0.,           0.,           0.,           1.,           0.
7,          -1.,           0.,           0.,           0.,           1.,           0.
8,          -1.,           0.,           0.,           0.,           1.,           0.
9,          -1.,           0.,           0.,           0.,           1.,           0.
10,          -1.,           0.,           0.,           0.,           1.,           0.
11,          -1.,           0.,           0.,           0.,           1.,           0.
12,          -1.,           0.,           0.,           0.,           1.,           0.
13,          -1.,           0.,           0.,           0.,           1.,           0.
14,          -1.,           0.,           0.,           0.,           1.,           0.
15,          -1.,           0.,           0.,           0.,           1.,           0.
16,          -1.,           0.,           0.,           0.,           1.,           0.
17,          -1.,           0.,           0.,           0.,           1.,           0.
18,          -1.,           0.,           0.,           0.,           1.,           0.
19,          -1.,           0.,           0.,           0.,           1.,           0.
20,          -1.,           0.,           0.,           0.,           1.,           0.
** ... 1972 like lines cut
*Orientation, name=Ori-1, system=RECTANGULAR
Ori-1-DiscOrient
3, 0.
** Region: (LU-1: Generated From Layup)
*Elset, elset=LU-1, generate
    1,  1992,     1
** Section: LU-1
*Shell Section, elset=LU-1, composite, orientation=Ori-1, layup=LU
0.6, 3, CFRP, 0., Ply-1
0.6, 3, CFRP, 0., Ply-2
0.6, 3, CFRP, 0., Ply-3
0.6, 3, CFRP, -45., Ply-4
0.6, 3, CFRP, 45., Ply-5
0.6, 3, CFRP, 0., Ply-6
0.6, 3, CFRP, 0., Ply-7
0.6, 3, CFRP, 0., Ply-8
0.6, 3, CFRP, 45., Ply-9
0.6, 3, CFRP, -45., Ply-10
0.6, 3, CFRP, 0., Ply-11
0.6, 3, CFRP, 0., Ply-12
0.6, 3, CFRP, 0., Ply-13
*End Part
**  
**
** ASSEMBLY
**
*Assembly, name=Assembly
**  
*Instance, name=Plate, part=Plate
*End Instance
**  
*Instance, name=Bolt-1, part=Bolt
         50.,          25.,           0.
         50.,          25.,           0., 51.0000000126881,          25.,           0., 89.9999992730282
*Surface, type=REVOLUTION, name=Surface-Bolt-1
START,          10.,          20.
 LINE,          10.,         -20.
*End Instance
**  
*Node
      1,          50.,          25.,           0.
*Nset, nset=Edges-Hole-Bolt-1, instance=Plate
   2,   3,   6,  11,  25,  26,  27,  40,  41,  57,  58, 628, 629, 630
*Elset, elset=Edges-Hole-Bolt-1, instance=Plate
    7,    8,    9,   10,   51,   95,   96,   97, 1041, 1042, 1049, 1050, 1051, 1052
*Nset, nset=RP-1
 1,
*Nset, nset="edges at x=0", instance=Plate
  4,  5,  8, 36, 37, 38, 39, 53, 54, 55, 56
*Elset, elset="edges at x=0", instance=Plate
 18, 26, 27, 28, 29, 62, 70, 78, 79, 80
*Nset, nset="edges at x=L", instance=Plate
   9,  10,  12, 247, 248, 249, 250, 631, 632, 633, 634
*Elset, elset="edges at x=L", instance=Plate
  288,  476,  664,  665,  666, 1240, 1428, 1429, 1430, 1431
*Elset, elset="_surface at x=L_E2", internal, instance=Plate
  288,  476,  664, 1240, 1428
*Elset, elset="_surface at x=L_E1", internal, instance=Plate
  665,  666, 1429, 1430, 1431
*Surface, type=ELEMENT, name="surface at x=L"
"_surface at x=L_E2", E2
"_surface at x=L_E1", E1
*Surface, type=NODE, name=Edges-Hole-Bolt-1_CNS_, internal
Edges-Hole-Bolt-1, 1.
** Constraint: Constraint-Bolt-1
*Rigid Body, ref node=RP-1, analytical surface=Bolt-1.Surface-Bolt-1
*End Assembly
*Distribution Table, name=Ori-1-DiscOrient_Table
coord3D, coord3D
** 
** MATERIALS
** 
*Material, name=CFRP
*Density
 1.6e-09,
*Elastic, type=ENGINEERING CONSTANTS
130000.,10000.,10000.,  0.28,  0.28,   0.5, 4500., 4500.
 3500.,
*Fail Stress
1400., 900.,  30., 120.,  60., -0.5,   0.
** 
** INTERACTION PROPERTIES
** 
*Surface Interaction, name=Contact-properties
1.,
** 
** BOUNDARY CONDITIONS
** 
** Name: BC-FIX-1 Type: Symmetry/Antisymmetry/Encastre
*Boundary
RP-1, ENCASTRE
** Name: support-z at x=0 Type: Displacement/Rotation
*Boundary
"edges at x=0", 3, 3
** Name: support-z at x=L Type: Displacement/Rotation
*Boundary
"edges at x=L", 3, 3
** 
** INTERACTIONS
** 
** Interaction: ContactBolt-1
*Contact Pair, interaction=Contact-properties, type=SURFACE TO SURFACE
Edges-Hole-Bolt-1_CNS_, Bolt-1.Surface-Bolt-1
** ----------------------------------------------------------------
** 
** STEP: Step-1
** 
*Step, name=Step-1, nlgeom=NO
*Static
1., 1., 1e-05, 1.
** 
** LOADS
** 
** Name: Nx   Type: Shell edge load
*Dsload
"surface at x=L", EDLD, 1000., 1., 0., 0.
** 
** OUTPUT REQUESTS
** 
*Restart, write, frequency=0
** 
** FIELD OUTPUT: F-Output-2
** 
*Output, field
*Element Output, elset=Plate.LU-1, directions=YES
1, 2, 3, 4, 5, 6, 7, 8, 9, 10, 11, 12, 13, 14, 15, 16
CFAILURE, E, S, SE, SF
*Element Output, elset=Plate.LU-1, directions=YES
17, 18, 19, 20, 21, 22, 23, 24, 25, 26, 27, 28, 29, 30, 31, 32
CFAILURE, E, S, SE, SF
*Element Output, elset=Plate.LU-1, directions=YES
33, 34, 35, 36, 37, 38, 39
CFAILURE, E, S, SE, SF
** 
** FIELD OUTPUT: F-Output-1
** 
*Output, field, variable=PRESELECT
** 
** HISTORY OUTPUT: H-Output-1
** 
*Output, history, variable=PRESELECT
*End Step
