1

   Abaqus 2022                                  Date 30-apr-2025   Time 10:47:51
   For use by NORGES TEKNISK NATURVITENSKAPELIGE UNIVERSITET under license from Dassault Systemes or its subsidiary.

                                                                                 
                                                                                 
 STEP    1     INCREMENT     1     STEP TIME    0.00    


                        S T E P       1     S T A T I C   A N A L Y S I S


                                                                                          

     AUTOMATIC TIME CONTROL WITH -
          A SUGGESTED INITIAL TIME INCREMENT OF                 1.00    
          AND A TOTAL TIME PERIOD OF                            1.00    
          THE MINIMUM TIME INCREMENT ALLOWED IS                1.000E-05
          THE MAXIMUM TIME INCREMENT ALLOWED IS                 1.00    

     LINEAR EQUATION SOLVER TYPE         DIRECT SPARSE

 CONVERGENCE TOLERANCE PARAMETERS FOR FORCE    
     CRITERION FOR RESIDUAL FORCE     FOR A NONLINEAR PROBLEM          5.000E-03
     CRITERION FOR DISP.    CORRECTION IN A NONLINEAR PROBLEM          1.000E-02
     INITIAL VALUE OF TIME AVERAGE FORCE                               1.000E-02
     AVERAGE FORCE     IS TIME AVERAGE FORCE    
     ALTERNATE CRIT. FOR RESIDUAL FORCE     FOR A NONLINEAR PROBLEM    2.000E-02
     CRITERION FOR ZERO FORCE     RELATIVE TO TIME AVRG. FORCE         1.000E-05
     CRITERION FOR RESIDUAL FORCE     WHEN THERE IS ZERO FLUX          1.000E-05
     CRITERION FOR DISP.    CORRECTION WHEN THERE IS ZERO FLUX         1.000E-03
     CRITERION FOR RESIDUAL FORCE     FOR A LINEAR INCREMENT           1.000E-08
     FIELD CONVERSION RATIO                                             1.00    
     CRITERION FOR ZERO FORCE     REL. TO TIME AVRG. MAX. FORCE        1.000E-05
     CRITERION FOR ZERO DISP.    RELATIVE TO CHARACTERISTIC LENGTH     1.000E-08

 CONVERGENCE TOLERANCE PARAMETERS FOR MOMENT   
     CRITERION FOR RESIDUAL MOMENT    FOR A NONLINEAR PROBLEM          5.000E-03
     CRITERION FOR ROTATION CORRECTION IN A NONLINEAR PROBLEM          1.000E-02
     INITIAL VALUE OF TIME AVERAGE MOMENT                              1.000E-02
     AVERAGE MOMENT    IS TIME AVERAGE MOMENT   
     ALTERNATE CRIT. FOR RESIDUAL MOMENT    FOR A NONLINEAR PROBLEM    2.000E-02
     CRITERION FOR ZERO MOMENT    RELATIVE TO TIME AVRG. MOMENT        1.000E-05
     CRITERION FOR RESIDUAL MOMENT    WHEN THERE IS ZERO FLUX          1.000E-05
     CRITERION FOR ROTATION CORRECTION WHEN THERE IS ZERO FLUX         1.000E-03
     CRITERION FOR RESIDUAL MOMENT    FOR A LINEAR INCREMENT           1.000E-08
     FIELD CONVERSION RATIO                                             1.00    
     CRITERION FOR ZERO MOMENT    REL. TO TIME AVRG. MAX. MOMENT       1.000E-05

     VOLUMETRIC STRAIN COMPATIBILITY TOLERANCE FOR HYBRID SOLIDS       1.000E-05
     AXIAL STRAIN COMPATIBILITY TOLERANCE FOR HYBRID BEAMS             1.000E-05
     TRANS. SHEAR STRAIN COMPATIBILITY TOLERANCE FOR HYBRID BEAMS      1.000E-05
     SOFT CONTACT CONSTRAINT COMPATIBILITY TOLERANCE FOR P>P0          5.000E-03
     SOFT CONTACT CONSTRAINT COMPATIBILITY TOLERANCE FOR P=0.0         0.100    
     CONTACT FORCE ERROR TOLERANCE FOR CONVERT SDI=YES                 1.00    
     DISPLACEMENT COMPATIBILITY TOLERANCE FOR DCOUP ELEMENTS           1.000E-05
     ROTATION COMPATIBILITY TOLERANCE FOR DCOUP ELEMENTS               1.000E-05

 EQUILIBRIUM WILL BE CHECKED FOR SEVERE DISCONTINUITY ITERATIONS

 TIME INCREMENTATION CONTROL PARAMETERS:
     FIRST EQUILIBRIUM ITERATION FOR CONSECUTIVE DIVERGENCE CHECK              4
     EQUILIBRIUM ITERATION AT WHICH LOG. CONVERGENCE RATE CHECK BEGINS         8
     EQUILIBRIUM ITERATION AFTER WHICH ALTERNATE RESIDUAL IS USED              9
     MAXIMUM EQUILIBRIUM ITERATIONS ALLOWED                                   16
     EQUILIBRIUM ITERATION COUNT FOR CUT-BACK IN NEXT INCREMENT               10
     MAXIMUM EQUILIB. ITERS IN TWO INCREMENTS FOR TIME INCREMENT INCREASE      4
     MAXIMUM ITERATIONS FOR SEVERE DISCONTINUITIES                            50
     MAXIMUM ATTEMPTS ALLOWED IN AN INCREMENT                                  5
     MAXIMUM DISCON. ITERS IN TWO INCREMENTS FOR TIME INCREMENT INCREASE      50
     MAXIMUM CONTACT AUGMENTATIONS FOR *SURFACE BEHAVIOR,AUGMENTED LAGRANGE   50
     CUT-BACK FACTOR AFTER DIVERGENCE                                 0.2500    
     CUT-BACK FACTOR FOR TOO SLOW CONVERGENCE                         0.5000    
     CUT-BACK FACTOR AFTER TOO MANY EQUILIBRIUM ITERATIONS            0.7500    
     CUT-BACK FACTOR AFTER TOO MANY SEVERE DISCONTINUITY ITERATIONS   0.2500    
     CUT-BACK FACTOR AFTER PROBLEMS IN ELEMENT ASSEMBLY               0.2500    
     INCREASE FACTOR AFTER TWO INCREMENTS THAT CONVERGE QUICKLY        1.500    
     MAX. TIME INCREMENT INCREASE FACTOR ALLOWED                       1.500    
     MAX. TIME INCREMENT INCREASE FACTOR ALLOWED (DYNAMICS)            1.250    
     MAX. TIME INCREMENT INCREASE FACTOR ALLOWED (DIFFUSION)           2.000    
     MINIMUM TIME INCREMENT RATIO FOR EXTRAPOLATION TO OCCUR          0.1000    
     MAX. RATIO OF TIME INCREMENT TO STABILITY LIMIT                   1.000    
     FRACTION OF STABILITY LIMIT FOR NEW TIME INCREMENT               0.9500    
     TIME INCREMENT INCREASE FACTOR BEFORE A TIME POINT                1.000    
     GLOBAL STABILIZATION CONTROL IS NOT USED

          PRINT OF INCREMENT NUMBER, TIME, ETC., EVERY    1  INCREMENTS

     THE MAXIMUM NUMBER OF INCREMENTS IN THIS STEP IS                     100

     LINEAR EXTRAPOLATION WILL BE USED

     CHARACTERISTIC ELEMENT LENGTH      5.35    

     DETAILS REGARDING ACTUAL SOLUTION WAVEFRONT REQUESTED

     DETAILED OUTPUT OF DIAGNOSTICS TO DATABASE REQUESTED

     PRINT OF INCREMENT NUMBER, TIME, ETC., TO THE MESSAGE FILE EVERY     1  INCREMENTS

     COLLECTING MODEL CONSTRAINT INFORMATION FOR OVERCONSTRAINT CHECKS

     COLLECTING STEP CONSTRAINT INFORMATION FOR OVERCONSTRAINT CHECKS

 ***WARNING: The 3-direction at one or more points in one or more layers in 
             3546 elements as defined in *ORIENTATION are in the opposite 
             direction to the element normals. Either the 1 or 2 and the 
             3-direction defined in *ORIENTATION will be reversed. The elements 
             have been identified in element set 
             WarnElem3DirOppElemNormalStep1Inc1.


  INCREMENT     1 STARTS. ATTEMPT NUMBER  1, TIME INCREMENT   1.00    
 
	SYMMETRIC DIRECT SPARSE SOLVER RUNNING ON
 	1 HOST:        1 MPI RANK  x 1 THREAD
 	NUMBER OF EQUATIONS:     22677
 	NUMBER OF RHS:           1
 	NUMBER OF FLOPS:         4.783e+08

     CHECK POINT   START OF SOLVER    

     CHECK POINT  END OF SOLVER       

       ELAPSED USER TIME (SEC)      =  0.10000    
       ELAPSED SYSTEM TIME (SEC)    =   0.0000    
       ELAPSED TOTAL CPU TIME (SEC) =  0.10000    
       ELAPSED WALLCLOCK TIME (SEC) =          0

                   18 SEVERE DISCONTINUITIES OCCURRED DURING THIS ITERATION.
                   13 POINTS CHANGED FROM OPEN TO CLOSED
                    5 POINTS CHANGED FROM CLOSED TO OPEN

               CONVERGENCE CHECKS FOR SEVERE DISCONTINUITY ITERATION     1

   MAX. PENETRATION ERROR 444.990E-03   AT NODE PLATE.106 OF CONTACT PAIR 
   (ASSEMBLY_EDGES-HOLE-BOLT-1_CNS_,ASSEMBLY_BOLT-1_SURFACE-BOLT-1)
   MAX. CONTACT FORCE ERROR -37.2184E+03  AT NODE PLATE.17 OF CONTACT PAIR 
   (ASSEMBLY_EDGES-HOLE-BOLT-2_CNS_,ASSEMBLY_BOLT-2_SURFACE-BOLT-2)
          PENETRATION ERROR TOO LARGE COMPARED TO DISPLACEMENT INCREMENT.

 AVERAGE FORCE                       909.       TIME AVG. FORCE        909.    
 LARGEST RESIDUAL FORCE             3.722E+04   AT NODE         17   DOF  1
   INSTANCE: PLATE                                                                           
 LARGEST INCREMENT OF DISP.          1.60       AT NODE         15   DOF  1
   INSTANCE: PLATE                                                                           
 LARGEST CORRECTION TO DISP.         1.60       AT NODE         15   DOF  1
   INSTANCE: PLATE                                                                           
          FORCE     EQUILIBRIUM NOT ACHIEVED WITHIN TOLERANCE.

 AVERAGE MOMENT                      10.6       TIME AVG. MOMENT       10.6    
 LARGEST RESIDUAL MOMENT            1.972E-11   AT NODE        493   DOF  4
   INSTANCE: PLATE                                                                           
 LARGEST INCREMENT OF ROTATION     -4.804E-02   AT NODE         76   DOF  6
   INSTANCE: PLATE                                                                           
 LARGEST CORRECTION TO ROTATION    -4.804E-02   AT NODE         76   DOF  6
   INSTANCE: PLATE                                                                           
          THE MOMENT    EQUILIBRIUM EQUATIONS HAVE CONVERGED
 
	SYMMETRIC DIRECT SPARSE SOLVER RUNNING ON
 	1 HOST:        1 MPI RANK  x 1 THREAD
 	NUMBER OF EQUATIONS:     22685
 	NUMBER OF RHS:           1
 	NUMBER OF FLOPS:         4.807e+08

     CHECK POINT   START OF SOLVER    

     CHECK POINT  END OF SOLVER       

       ELAPSED USER TIME (SEC)      =  0.10000    
       ELAPSED SYSTEM TIME (SEC)    =   0.0000    
       ELAPSED TOTAL CPU TIME (SEC) =  0.10000    
       ELAPSED WALLCLOCK TIME (SEC) =          0

                    6 SEVERE DISCONTINUITIES OCCURRED DURING THIS ITERATION.
                    2 POINTS CHANGED FROM OPEN TO CLOSED
                    4 POINTS CHANGED FROM CLOSED TO OPEN

               CONVERGENCE CHECKS FOR SEVERE DISCONTINUITY ITERATION     2

   MAX. PENETRATION ERROR 64.4250E-03  AT NODE PLATE.7 OF CONTACT PAIR 
   (ASSEMBLY_EDGES-HOLE-BOLT-2_CNS_,ASSEMBLY_BOLT-2_SURFACE-BOLT-2)
   MAX. CONTACT FORCE ERROR -1.69752E+03 AT NODE PLATE.76 OF CONTACT PAIR 
   (ASSEMBLY_EDGES-HOLE-BOLT-1_CNS_,ASSEMBLY_BOLT-1_SURFACE-BOLT-1)
          PENETRATION ERROR TOO LARGE COMPARED TO DISPLACEMENT INCREMENT.

 AVERAGE FORCE                       907.       TIME AVG. FORCE        907.    
 LARGEST RESIDUAL FORCE             1.456E+03   AT NODE         76   DOF  2
   INSTANCE: PLATE                                                                           
 LARGEST INCREMENT OF DISP.          1.40       AT NODE         18   DOF  1
   INSTANCE: PLATE                                                                           
 LARGEST CORRECTION TO DISP.       -0.640       AT NODE        681   DOF  2
   INSTANCE: PLATE                                                                           
          FORCE     EQUILIBRIUM NOT ACHIEVED WITHIN TOLERANCE.

 AVERAGE MOMENT                     0.693       TIME AVG. MOMENT      0.693    
 LARGEST RESIDUAL MOMENT            1.812E-11   AT NODE       1706   DOF  5
   INSTANCE: PLATE                                                                           
 LARGEST INCREMENT OF ROTATION     -9.929E-03   AT NODE          7   DOF  6
   INSTANCE: PLATE                                                                           
 LARGEST CORRECTION TO ROTATION     4.643E-02   AT NODE         76   DOF  6
   INSTANCE: PLATE                                                                           
          THE MOMENT    EQUILIBRIUM EQUATIONS HAVE CONVERGED
 
	SYMMETRIC DIRECT SPARSE SOLVER RUNNING ON
 	1 HOST:        1 MPI RANK  x 1 THREAD
 	NUMBER OF EQUATIONS:     22683
 	NUMBER OF RHS:           1
 	NUMBER OF FLOPS:         4.806e+08

     CHECK POINT   START OF SOLVER    

     CHECK POINT  END OF SOLVER       

       ELAPSED USER TIME (SEC)      =  0.10000    
       ELAPSED SYSTEM TIME (SEC)    =   0.0000    
       ELAPSED TOTAL CPU TIME (SEC) =  0.10000    
       ELAPSED WALLCLOCK TIME (SEC) =          0

                    1 SEVERE DISCONTINUITIES OCCURRED DURING THIS ITERATION.
                    1 POINTS CHANGED FROM OPEN TO CLOSED

               CONVERGENCE CHECKS FOR SEVERE DISCONTINUITY ITERATION     3

   MAX. PENETRATION ERROR 8.78568E-03 AT NODE PLATE.2 OF CONTACT PAIR 
   (ASSEMBLY_EDGES-HOLE-BOLT-2_CNS_,ASSEMBLY_BOLT-2_SURFACE-BOLT-2)
   MAX. CONTACT FORCE ERROR 42.1004      AT NODE PLATE.2 OF CONTACT PAIR 
   (ASSEMBLY_EDGES-HOLE-BOLT-2_CNS_,ASSEMBLY_BOLT-2_SURFACE-BOLT-2)
          PENETRATION ERROR TOO LARGE COMPARED TO DISPLACEMENT INCREMENT.

 AVERAGE FORCE                       906.       TIME AVG. FORCE        906.    
 LARGEST RESIDUAL FORCE             -8.78       AT NODE          2   DOF  2
   INSTANCE: PLATE                                                                           
 LARGEST INCREMENT OF DISP.          1.40       AT NODE         18   DOF  1
   INSTANCE: PLATE                                                                           
 LARGEST CORRECTION TO DISP.        7.388E-02   AT NODE        681   DOF  2
   INSTANCE: PLATE                                                                           
          FORCE     EQUILIBRIUM NOT ACHIEVED WITHIN TOLERANCE.

 AVERAGE MOMENT                     0.572       TIME AVG. MOMENT      0.572    
 LARGEST RESIDUAL MOMENT            1.130E-11   AT NODE        740   DOF  5
   INSTANCE: PLATE                                                                           
 LARGEST INCREMENT OF ROTATION      8.424E-03   AT NODE         28   DOF  6
   INSTANCE: PLATE                                                                           
 LARGEST CORRECTION TO ROTATION     3.162E-03   AT NODE          7   DOF  6
   INSTANCE: PLATE                                                                           
          THE MOMENT    EQUILIBRIUM EQUATIONS HAVE CONVERGED
 
	SYMMETRIC DIRECT SPARSE SOLVER RUNNING ON
 	1 HOST:        1 MPI RANK  x 1 THREAD
 	NUMBER OF EQUATIONS:     22684
 	NUMBER OF RHS:           1
 	NUMBER OF FLOPS:         4.807e+08

     CHECK POINT   START OF SOLVER    

     CHECK POINT  END OF SOLVER       

       ELAPSED USER TIME (SEC)      =  0.10000    
       ELAPSED SYSTEM TIME (SEC)    =   0.0000    
       ELAPSED TOTAL CPU TIME (SEC) =  0.10000    
       ELAPSED WALLCLOCK TIME (SEC) =          0

               CONVERGENCE CHECKS FOR EQUILIBRIUM ITERATION     1

   MAX. PENETRATION ERROR -245.809E-09   AT NODE PLATE.28 OF CONTACT PAIR 
   (ASSEMBLY_EDGES-HOLE-BOLT-2_CNS_,ASSEMBLY_BOLT-2_SURFACE-BOLT-2)
   MAX. CONTACT FORCE ERROR -1.17790E-03 AT NODE PLATE.28 OF CONTACT PAIR 
   (ASSEMBLY_EDGES-HOLE-BOLT-2_CNS_,ASSEMBLY_BOLT-2_SURFACE-BOLT-2)
          THE CONTACT CONSTRAINTS HAVE CONVERGED.

 AVERAGE FORCE                       906.       TIME AVG. FORCE        906.    
 LARGEST RESIDUAL FORCE            -2.342E-02   AT NODE         28   DOF  1
   INSTANCE: PLATE                                                                           
 LARGEST INCREMENT OF DISP.          1.40       AT NODE         18   DOF  1
   INSTANCE: PLATE                                                                           
 LARGEST CORRECTION TO DISP.       -1.828E-02   AT NODE        308   DOF  2
   INSTANCE: PLATE                                                                           
 ESTIMATE OF DISP.    CORRECTION    1.017E-05
 FORCE     EQUILIB. ACCEPTED BASED ON SMALL RESIDUAL AND ESTIMATED CORRECTION

 AVERAGE MOMENT                     0.543       TIME AVG. MOMENT      0.543    
 LARGEST RESIDUAL MOMENT            1.101E-11   AT NODE       1171   DOF  5
   INSTANCE: PLATE                                                                           
 LARGEST INCREMENT OF ROTATION      7.550E-03   AT NODE         28   DOF  6
   INSTANCE: PLATE                                                                           
 LARGEST CORRECTION TO ROTATION    -8.747E-04   AT NODE         28   DOF  6
   INSTANCE: PLATE                                                                           
          THE MOMENT    EQUILIBRIUM RESPONSE WAS LINEAR IN THIS INCREMENT

 ITERATION SUMMARY FOR THE INCREMENT:   4 TOTAL ITERATIONS, OF WHICH
   3 ARE SEVERE DISCONTINUITY ITERATIONS AND  1 ARE EQUILIBRIUM ITERATIONS.

 TIME INCREMENT COMPLETED   1.00    ,  FRACTION OF STEP COMPLETED   1.00    
 STEP TIME COMPLETED        1.00    ,  TOTAL TIME COMPLETED         1.00    


          THE ANALYSIS HAS BEEN COMPLETED



     ANALYSIS SUMMARY:
     TOTAL OF          1  INCREMENTS
                       0  CUTBACKS IN AUTOMATIC INCREMENTATION
                       4  ITERATIONS INCLUDING CONTACT ITERATIONS IF PRESENT
                       4  PASSES THROUGH THE EQUATION SOLVER OF WHICH 
                       4  INVOLVE MATRIX DECOMPOSITION, INCLUDING
                       0  DECOMPOSITION(S) OF THE MASS MATRIX
                       1  REORDERING OF EQUATIONS TO MINIMIZE WAVEFRONT
                       0  ADDITIONAL RESIDUAL EVALUATIONS FOR LINE SEARCHES
                       0  ADDITIONAL OPERATOR EVALUATIONS FOR LINE SEARCHES
                       7  WARNING MESSAGES DURING USER INPUT PROCESSING
                       1  WARNING MESSAGES DURING ANALYSIS
                       0  ANALYSIS WARNINGS ARE NUMERICAL PROBLEM MESSAGES
                       0  ANALYSIS WARNINGS ARE NEGATIVE EIGENVALUE MESSAGES
                       0  ERROR MESSAGES



     JOB TIME SUMMARY
       USER TIME (SEC)      =   2.9000    
       SYSTEM TIME (SEC)    =  0.20000    
       TOTAL CPU TIME (SEC) =   3.1000    
       WALLCLOCK TIME (SEC) =          3
