*Heading
** Job name: 3-point-test-shell Model name: 3-point-test-shell
** Generated by: Abaqus/CAE 2022
*Preprint, echo=NO, model=NO, history=NO, contact=NO
**
** PARTS
**
*Part, name=Specimen
*Node
      1,         210.,           0.,           0.
      2,         210.,          15.,           0.
      3,         110.,          15.,           0.
      4,         110.,           0.,           0.
      5,         210.,          30.,           0.
      6,         110.,          30.,           0.
      7,          10.,          15.,           0.
      8,          10.,           0.,           0.
      9,          10.,          30.,           0.
     10,         220.,          15.,           0.
     11,         220.,          30.,           0.
     12,           0.,          15.,           0.
     13,           0.,           0.,           0.
     14,         220.,           0.,           0.
     15,           0.,          30.,           0.
     16,         210.,        1.875,           0.
     17,         210.,         3.75,           0.
     18,         210.,        5.625,           0.
     19,         210.,          7.5,           0.
     20,         210.,        9.375,           0.
** ... 1867 like lines cut
*Element, type=S4R
  1,   1,  16, 404, 127
  2,  16,  17, 405, 404
  3,  17,  18, 406, 405
  4,  18,  19, 407, 406
  5,  19,  20, 408, 407
  6,  20,  21, 409, 408
  7,  21,  22, 410, 409
  8,  22,   2,  23, 410
  9, 127, 404, 411, 126
 10, 404, 405, 412, 411
 11, 405, 406, 413, 412
 12, 406, 407, 414, 413
 13, 407, 408, 415, 414
 14, 408, 409, 416, 415
 15, 409, 410, 417, 416
 16, 410,  23,  24, 417
 17, 126, 411, 418, 125
 18, 411, 412, 419, 418
 19, 412, 413, 420, 419
 20, 413, 414, 421, 420
** ... 1740 like lines cut
*Orientation, name=Ori-1
          1.,           0.,           0.,           0.,           1.,           0.
3, 0.
** Region: (Layup1-1: Generated From Layup)
*Elset, elset=Layup1-1, generate
    1,  1760,     1
** Section: Layup1-1
*Shell Section, elset=Layup1-1, composite, orientation=Ori-1, layup=Layup1
1., 3, Carbon/Epoxy(a), 0., Ply-1
4., 3, H100, 0., Ply-2
4., 3, H100, 0., Ply-3
1., 3, Carbon/Epoxy(a), 0., Ply-4
*End Part
**  
**
** ASSEMBLY
**
*Assembly, name=Assembly
**  
*Instance, name=Specimen, part=Specimen
       -110.,         -15.,           0.
*End Instance
**  
*Nset, nset=EDGES-LOADING, instance=Specimen
   3,   4,   6,  72,  73,  74,  75,  76,  77,  78, 184, 185, 186, 187, 188, 189
 190,
*Elset, elset=EDGES-LOADING, instance=Specimen
  393,  394,  395,  396,  397,  398,  399,  400,  793,  794,  795,  796,  797,  798,  799,  800
  801,  802,  803,  804,  805,  806,  807,  808, 1201, 1202, 1203, 1204, 1205, 1206, 1207, 1208
*Nset, nset=EDGES-SUPPORT, instance=Specimen
   1,   2,   5,   7,   8,   9,  16,  17,  18,  19,  20,  21,  22, 128, 129, 130
 131, 132, 133, 134, 240, 241, 242, 243, 244, 245, 246, 345, 346, 347, 348, 349
 350, 351
*Elset, elset=EDGES-SUPPORT, instance=Specimen
    1,    2,    3,    4,    5,    6,    7,    8,  401,  402,  403,  404,  405,  406,  407,  408
 1193, 1194, 1195, 1196, 1197, 1198, 1199, 1200, 1593, 1594, 1595, 1596, 1597, 1598, 1599, 1600
 1601, 1602, 1603, 1604, 1605, 1606, 1607, 1608, 1641, 1642, 1643, 1644, 1645, 1646, 1647, 1648
 1681, 1682, 1683, 1684, 1685, 1686, 1687, 1688, 1721, 1722, 1723, 1724, 1725, 1726, 1727, 1728
*Nset, nset=VERTICES-RB1, instance=Specimen
 4, 6
*Nset, nset=VERTICES-RB2, instance=Specimen
 3,
*End Assembly
** 
** MATERIALS
** 
*Material, name=Carbon/Epoxy(a)
*Density
 1.6e-09,
*Elastic, type=ENGINEERING CONSTANTS
130000.,10000.,10000.,  0.28,  0.28,   0.5, 4500., 4500.
 3500.,
*Material, name=H100
*Density
 1e-10,
*Elastic, type=ENGINEERING CONSTANTS
100., 100., 100.,  0.3,  0.3,  0.3, 38.5, 38.5
 38.5,
** 
** BOUNDARY CONDITIONS
** 
** Name: BC-LOADING Type: Displacement/Rotation
*Boundary
EDGES-LOADING, 3, 3
** Name: BC-RB1 Type: Displacement/Rotation
*Boundary
VERTICES-RB1, 1, 1
** Name: BC-RB2 Type: Displacement/Rotation
*Boundary
VERTICES-RB2, 2, 2
** Name: BC-SUPPORT Type: Displacement/Rotation
*Boundary
EDGES-SUPPORT, 3, 3
** ----------------------------------------------------------------
** 
** STEP: Step-1
** 
*Step, name=Step-1, nlgeom=YES
*Static
0.1, 1., 1e-05, 0.1
** 
** BOUNDARY CONDITIONS
** 
** Name: BC-LOADING Type: Displacement/Rotation
*Boundary
EDGES-LOADING, 3, 3, -10.
** 
** OUTPUT REQUESTS
** 
*Restart, write, frequency=0
** 
** FIELD OUTPUT: F-Output-1
** 
*Output, field, variable=PRESELECT
** 
** HISTORY OUTPUT: H-Output-1
** 
*Output, history, variable=PRESELECT
*End Step
