*Heading
** Job name: SW1 Model name: SW1
** Generated by: Abaqus/CAE 2022
*Preprint, echo=NO, model=NO, history=NO, contact=NO
**
** PARTS
**
*Part, name=Beam
*Node
      1,  -33.3333321,         -15.,           9.
      2,  -33.3333321,           0.,           9.
      3,        -100.,           0.,           9.
      4,        -100.,         -15.,           9.
      5,  -33.3333321,         -15.,           1.
      6,  -33.3333321,           0.,           1.
      7,        -100.,           0.,           1.
      8,        -100.,         -15.,           1.
      9,         100.,         -15.,           9.
     10,         100.,           0.,           9.
     11,   33.3333321,           0.,           9.
     12,   33.3333321,         -15.,           9.
     13,         100.,         -15.,           1.
     14,         100.,           0.,           1.
     15,   33.3333321,           0.,           1.
     16,   33.3333321,         -15.,           1.
     17,         110.,           0.,           9.
     18,         110.,         -15.,           9.
     19,         110.,           0.,           1.
     20,         110.,         -15.,           1.
** ... 28030 like lines cut
*Element, type=C3D8R
   1,   234,  2495, 12035,  2303,     1,    73,  1855,   150
   2,  2495,  2496, 12036, 12035,    73,    74,  1856,  1855
   3,  2496,  2497, 12037, 12036,    74,    75,  1857,  1856
   4,  2497,  2498, 12038, 12037,    75,    76,  1858,  1857
   5,  2498,  2499, 12039, 12038,    76,    77,  1859,  1858
   6,  2499,  2500, 12040, 12039,    77,    78,  1860,  1859
   7,  2500,  2501, 12041, 12040,    78,    79,  1861,  1860
   8,  2501,   238,  2399, 12041,    79,     2,    80,  1861
   9,  2303, 12035, 12042,  2304,   150,  1855,  1862,   149
  10, 12035, 12036, 12043, 12042,  1855,  1856,  1863,  1862
  11, 12036, 12037, 12044, 12043,  1856,  1857,  1864,  1863
  12, 12037, 12038, 12045, 12044,  1857,  1858,  1865,  1864
  13, 12038, 12039, 12046, 12045,  1858,  1859,  1866,  1865
  14, 12039, 12040, 12047, 12046,  1859,  1860,  1867,  1866
  15, 12040, 12041, 12048, 12047,  1860,  1861,  1868,  1867
  16, 12041,  2399,  2400, 12048,  1861,    80,    81,  1868
  17,  2304, 12042, 12049,  2305,   149,  1862,  1869,   148
  18, 12042, 12043, 12050, 12049,  1862,  1863,  1870,  1869
  19, 12043, 12044, 12051, 12050,  1863,  1864,  1871,  1870
  20, 12044, 12045, 12052, 12051,  1864,  1865,  1872,  1871
** ... 24396 like lines cut
*Nset, nset=CELLS-BOT
     5,     6,     7,     8,    13,    14,    15,    16,    19,    20,    23,    24,    26,    28,    30,    33
    34,    36,    55,    56,    57,    58,    59,    60,    61,    62,    63,    64,    65,    66,    67,    68
    69,    70,    71,    72,   151,   152,   153,   154,   155,   156,   157,   158,   159,   160,   161,   162
   163,   164,   165,   166,   167,   168,   169,   170,   171,   172,   173,   174,   175,   176,   177,   178
   179,   180,   181,   182,   183,   184,   185,   186,   187,   188,   189,   190,   191,   192,   193,   194
   195,   196,   197,   198,   199,   200,   201,   202,   203,   204,   205,   206,   207,   208,   209,   210
   211,   212,   213,   214,   215,   216,   217,   218,   219,   220,   221,   222,   223,   224,   225,   226
   227,   228,   319,   320,   321,   322,   323,   324,   325,   326,   327,   328,   329,   330,   331,   332
   333,   334,   335,   336,   337,   338,   339,   340,   341,   342,   343,   344,   345,   346,   347,   348
   349,   350,   351,   352,   353,   354,   355,   356,   357,   358,   359,   360,   361,   362,   363,   364
   365,   366,   367,   368,   369,   370,   371,   372,   373,   374,   375,   376,   377,   378,   379,   380
   381,   382,   383,   384,   385,   386,   387,   388,   389,   390,   391,   392,   393,   394,   395,   396
   424,   425,   426,   427,   428,   429,   430,   431,   432,   433,   434,   435,   436,   437,   438,   463
   464,   465,   466,   467,   468,   469,   470,   471,   472,   473,   474,   475,   476,   477,   478,   479
   480,   526,   527,   528,   529,   530,   531,   532,   533,   534,   535,   536,   537,   538,   539,   540
   541,   542,   543,   544,   545,   546,   547,   548,   549,   550,   551,   552,   553,   554,   555,   556
   557,   558,   559,   560,   561,   562,   563,   564,   639,   640,   641,   642,   643,   644,   645,   646
   647,   648,   649,   650,   651,   652,   653,   654,   655,   656,   657,   658,   659,   660,   661,   662
   663,   664,   665,   666,   667,   668,   669,   670,   671,   672,   673,   674,   675,   676,   677,   678
   679,   680,   681,   682,   683,   684,   685,   686,   687,   688,   689,   690,   691,   692,   693,   694
** ... 682 like lines cut
*Elset, elset=CELLS-BOT
 14641, 14642, 14643, 14644, 14645, 14646, 14647, 14648, 14649, 14650, 14651, 14652, 14653, 14654, 14655, 14656
 14657, 14658, 14659, 14660, 14661, 14662, 14663, 14664, 14665, 14666, 14667, 14668, 14669, 14670, 14671, 14672
 14673, 14674, 14675, 14676, 14677, 14678, 14679, 14680, 14681, 14682, 14683, 14684, 14685, 14686, 14687, 14688
 14689, 14690, 14691, 14692, 14693, 14694, 14695, 14696, 14697, 14698, 14699, 14700, 14701, 14702, 14703, 14704
 14705, 14706, 14707, 14708, 14709, 14710, 14711, 14712, 14713, 14714, 14715, 14716, 14717, 14718, 14719, 14720
 14721, 14722, 14723, 14724, 14725, 14726, 14727, 14728, 14729, 14730, 14731, 14732, 14733, 14734, 14735, 14736
 14737, 14738, 14739, 14740, 14741, 14742, 14743, 14744, 14745, 14746, 14747, 14748, 14749, 14750, 14751, 14752
 14753, 14754, 14755, 14756, 14757, 14758, 14759, 14760, 14761, 14762, 14763, 14764, 14765, 14766, 14767, 14768
 14769, 14770, 14771, 14772, 14773, 14774, 14775, 14776, 14777, 14778, 14779, 14780, 14781, 14782, 14783, 14784
 14785, 14786, 14787, 14788, 14789, 14790, 14791, 14792, 14793, 14794, 14795, 14796, 14797, 14798, 14799, 14800
 14801, 14802, 14803, 14804, 14805, 14806, 14807, 14808, 14809, 14810, 14811, 14812, 14813, 14814, 14815, 14816
 14817, 14818, 14819, 14820, 14821, 14822, 14823, 14824, 14825, 14826, 14827, 14828, 14829, 14830, 14831, 14832
 14833, 14834, 14835, 14836, 14837, 14838, 14839, 14840, 14841, 14842, 14843, 14844, 14845, 14846, 14847, 14848
 14849, 14850, 14851, 14852, 14853, 14854, 14855, 14856, 14857, 14858, 14859, 14860, 14861, 14862, 14863, 14864
 14865, 14866, 14867, 14868, 14869, 14870, 14871, 14872, 14873, 14874, 14875, 14876, 14877, 14878, 14879, 14880
 14881, 14882, 14883, 14884, 14885, 14886, 14887, 14888, 14889, 14890, 14891, 14892, 14893, 14894, 14895, 14896
 14897, 14898, 14899, 14900, 14901, 14902, 14903, 14904, 14905, 14906, 14907, 14908, 14909, 14910, 14911, 14912
 14913, 14914, 14915, 14916, 14917, 14918, 14919, 14920, 14921, 14922, 14923, 14924, 14925, 14926, 14927, 14928
 14929, 14930, 14931, 14932, 14933, 14934, 14935, 14936, 14937, 14938, 14939, 14940, 14941, 14942, 14943, 14944
 14945, 14946, 14947, 14948, 14949, 14950, 14951, 14952, 14953, 14954, 14955, 14956, 14957, 14958, 14959, 14960
** ... 525 like lines cut
*Nset, nset=CELLS-CORE
     1,     2,     3,     4,     5,     6,     7,     8,     9,    10,    11,    12,    13,    14,    15,    16
    17,    18,    19,    20,    21,    22,    23,    24,    25,    26,    27,    28,    29,    30,    31,    32
    33,    34,    35,    36,    73,    74,    75,    76,    77,    78,    79,    80,    81,    82,    83,    84
    85,    86,    87,    88,    89,    90,    91,    92,    93,    94,    95,    96,    97,    98,    99,   100
   101,   102,   103,   104,   105,   106,   107,   108,   109,   110,   111,   112,   113,   114,   115,   116
   117,   118,   119,   120,   121,   122,   123,   124,   125,   126,   127,   128,   129,   130,   131,   132
   133,   134,   135,   136,   137,   138,   139,   140,   141,   142,   143,   144,   145,   146,   147,   148
   149,   150,   151,   152,   153,   154,   155,   156,   157,   158,   159,   160,   161,   162,   163,   164
   165,   166,   167,   168,   169,   170,   171,   172,   173,   174,   175,   176,   177,   178,   179,   180
   181,   182,   183,   184,   185,   186,   187,   188,   189,   190,   191,   192,   193,   194,   195,   196
   197,   198,   199,   200,   201,   202,   203,   204,   205,   206,   207,   208,   209,   210,   211,   212
   213,   214,   215,   216,   217,   218,   219,   220,   221,   222,   223,   224,   225,   226,   227,   228
   229,   230,   231,   232,   233,   234,   235,   236,   237,   238,   239,   240,   241,   242,   243,   244
   245,   246,   247,   248,   249,   250,   251,   252,   253,   254,   255,   256,   257,   258,   259,   260
   261,   262,   263,   264,   265,   266,   267,   268,   269,   270,   271,   272,   273,   274,   275,   276
   277,   278,   279,   280,   281,   282,   283,   284,   285,   286,   287,   288,   289,   290,   291,   292
   293,   294,   295,   296,   297,   298,   299,   300,   301,   302,   303,   304,   305,   306,   307,   308
   309,   310,   311,   312,   313,   314,   315,   316,   317,   318,   319,   320,   321,   322,   323,   324
   325,   326,   327,   328,   329,   330,   331,   332,   333,   334,   335,   336,   337,   338,   339,   340
   341,   342,   343,   344,   345,   346,   347,   348,   349,   350,   351,   352,   353,   354,   355,   356
** ... 565 like lines cut
*Elset, elset=CELLS-CORE
     1,     2,     3,     4,     5,     6,     7,     8,     9,    10,    11,    12,    13,    14,    15,    16
    17,    18,    19,    20,    21,    22,    23,    24,    25,    26,    27,    28,    29,    30,    31,    32
    33,    34,    35,    36,    37,    38,    39,    40,    41,    42,    43,    44,    45,    46,    47,    48
    49,    50,    51,    52,    53,    54,    55,    56,    57,    58,    59,    60,    61,    62,    63,    64
    65,    66,    67,    68,    69,    70,    71,    72,    73,    74,    75,    76,    77,    78,    79,    80
    81,    82,    83,    84,    85,    86,    87,    88,    89,    90,    91,    92,    93,    94,    95,    96
    97,    98,    99,   100,   101,   102,   103,   104,   105,   106,   107,   108,   109,   110,   111,   112
   113,   114,   115,   116,   117,   118,   119,   120,   121,   122,   123,   124,   125,   126,   127,   128
   129,   130,   131,   132,   133,   134,   135,   136,   137,   138,   139,   140,   141,   142,   143,   144
   145,   146,   147,   148,   149,   150,   151,   152,   153,   154,   155,   156,   157,   158,   159,   160
   161,   162,   163,   164,   165,   166,   167,   168,   169,   170,   171,   172,   173,   174,   175,   176
   177,   178,   179,   180,   181,   182,   183,   184,   185,   186,   187,   188,   189,   190,   191,   192
   193,   194,   195,   196,   197,   198,   199,   200,   201,   202,   203,   204,   205,   206,   207,   208
   209,   210,   211,   212,   213,   214,   215,   216,   217,   218,   219,   220,   221,   222,   223,   224
   225,   226,   227,   228,   229,   230,   231,   232,   233,   234,   235,   236,   237,   238,   239,   240
   241,   242,   243,   244,   245,   246,   247,   248,   249,   250,   251,   252,   253,   254,   255,   256
   257,   258,   259,   260,   261,   262,   263,   264,   265,   266,   267,   268,   269,   270,   271,   272
   273,   274,   275,   276,   277,   278,   279,   280,   281,   282,   283,   284,   285,   286,   287,   288
   289,   290,   291,   292,   293,   294,   295,   296,   297,   298,   299,   300,   301,   302,   303,   304
   305,   306,   307,   308,   309,   310,   311,   312,   313,   314,   315,   316,   317,   318,   319,   320
** ... 416 like lines cut
*Nset, nset=CELLS-TOP
     1,     2,     3,     4,     9,    10,    11,    12,    17,    18,    21,    22,    25,    27,    29,    31
    32,    35,    37,    38,    39,    40,    41,    42,    43,    44,    45,    46,    47,    48,    49,    50
    51,    52,    53,    54,    73,    74,    75,    76,    77,    78,    79,    80,    81,    82,    83,    84
    85,    86,    87,    88,    89,    90,    91,    92,    93,    94,    95,    96,    97,    98,    99,   100
   101,   102,   103,   104,   105,   106,   107,   108,   109,   110,   111,   112,   113,   114,   115,   116
   117,   118,   119,   120,   121,   122,   123,   124,   125,   126,   127,   128,   129,   130,   131,   132
   133,   134,   135,   136,   137,   138,   139,   140,   141,   142,   143,   144,   145,   146,   147,   148
   149,   150,   241,   242,   243,   244,   245,   246,   247,   248,   249,   250,   251,   252,   253,   254
   255,   256,   257,   258,   259,   260,   261,   262,   263,   264,   265,   266,   267,   268,   269,   270
   271,   272,   273,   274,   275,   276,   277,   278,   279,   280,   281,   282,   283,   284,   285,   286
   287,   288,   289,   290,   291,   292,   293,   294,   295,   296,   297,   298,   299,   300,   301,   302
   303,   304,   305,   306,   307,   308,   309,   310,   311,   312,   313,   314,   315,   316,   317,   318
   409,   410,   411,   412,   413,   414,   415,   416,   417,   418,   419,   420,   421,   422,   423,   445
   446,   447,   448,   449,   450,   451,   452,   453,   454,   455,   456,   457,   458,   459,   460,   461
   462,   487,   488,   489,   490,   491,   492,   493,   494,   495,   496,   497,   498,   499,   500,   501
   502,   503,   504,   505,   506,   507,   508,   509,   510,   511,   512,   513,   514,   515,   516,   517
   518,   519,   520,   521,   522,   523,   524,   525,   568,   569,   570,   571,   572,   573,   574,   575
   576,   577,   578,   579,   580,   581,   582,   583,   584,   585,   586,   587,   588,   589,   590,   591
   592,   593,   594,   595,   596,   597,   598,   599,   600,   601,   602,   603,   604,   605,   606,   607
   608,   609,   610,   611,   612,   613,   614,   615,   616,   617,   618,   619,   620,   621,   622,   623
** ... 682 like lines cut
*Elset, elset=CELLS-TOP, generate
  5921,  14640,      1
*Nset, nset=EDGES-LONG
    1,    2,    3,    4,    5,    6,    7,    8,    9,   10,   11,   12,   13,   14,   15,   16
   17,   18,   19,   20,   21,   22,   23,   24,   25,   26,   27,   28,   29,   30,   31,   32
   33,   34,   35,   36,   37,   38,   39,   40,   41,   42,   43,   44,   45,   46,   47,   48
   49,   50,   51,   52,   53,   54,   55,   56,   57,   58,   59,   60,   61,   62,   63,   64
   65,   66,   67,   68,   69,   70,   71,   72,   80,   81,   82,   83,   84,   85,   86,   87
   88,   89,   90,   91,   92,   93,   94,   95,   96,   97,   98,   99,  100,  101,  102,  103
  104,  105,  106,  107,  108,  109,  110,  111,  119,  120,  121,  122,  123,  124,  125,  126
  127,  128,  129,  130,  131,  132,  133,  134,  135,  136,  137,  138,  139,  140,  141,  142
  143,  144,  145,  146,  147,  148,  149,  150,  158,  159,  160,  161,  162,  163,  164,  165
  166,  167,  168,  169,  170,  171,  172,  173,  174,  175,  176,  177,  178,  179,  180,  181
  182,  183,  184,  185,  186,  187,  188,  189,  197,  198,  199,  200,  201,  202,  203,  204
  205,  206,  207,  208,  209,  210,  211,  212,  213,  214,  215,  216,  217,  218,  219,  220
  221,  222,  223,  224,  225,  226,  227,  228,  248,  249,  250,  251,  252,  253,  254,  255
  256,  257,  258,  259,  260,  261,  262,  263,  264,  265,  266,  267,  268,  269,  270,  271
  272,  273,  274,  275,  276,  277,  278,  279,  287,  288,  289,  290,  291,  292,  293,  294
  295,  296,  297,  298,  299,  300,  301,  302,  303,  304,  305,  306,  307,  308,  309,  310
  311,  312,  313,  314,  315,  316,  317,  318,  326,  327,  328,  329,  330,  331,  332,  333
  334,  335,  336,  337,  338,  339,  340,  341,  342,  343,  344,  345,  346,  347,  348,  349
  350,  351,  352,  353,  354,  355,  356,  357,  365,  366,  367,  368,  369,  370,  371,  372
  373,  374,  375,  376,  377,  378,  379,  380,  381,  382,  383,  384,  385,  386,  387,  388
** ... 63 like lines cut
*Elset, elset=EDGES-LONG
     1,     8,     9,    16,    17,    24,    25,    32,    33,    40,    41,    48,    49,    56,    57,    64
    65,    72,    73,    80,    81,    88,    89,    96,    97,   104,   105,   112,   113,   120,   121,   128
   129,   136,   137,   144,   145,   152,   153,   160,   161,   168,   169,   176,   177,   184,   185,   192
   193,   200,   201,   208,   209,   216,   217,   224,   225,   232,   233,   240,   241,   248,   249,   256
   257,   264,   793,   800,   801,   808,   809,   816,   817,   824,   825,   832,   833,   840,   841,   848
   849,   856,   857,   864,   865,   872,   873,   880,   881,   888,   889,   896,   897,   904,   905,   912
   913,   920,   921,   928,   929,   936,   937,   944,   945,   952,   953,   960,   961,   968,   969,   976
   977,   984,   985,   992,   993,  1000,  1001,  1008,  1009,  1016,  1017,  1024,  1025,  1032,  1033,  1040
  1041,  1048,  1049,  1056,  1057,  1064,  1065,  1072,  1073,  1080,  1081,  1088,  1089,  1096,  1097,  1104
  1105,  1112,  1113,  1120,  1121,  1128,  1129,  1136,  1137,  1144,  1145,  1152,  1153,  1160,  1161,  1168
  1169,  1176,  1177,  1184,  1185,  1192,  1193,  1200,  1201,  1208,  1209,  1216,  1217,  1224,  1225,  1232
  1233,  1240,  1241,  1248,  1249,  1256,  1257,  1264,  1265,  1272,  1273,  1280,  1281,  1288,  1289,  1296
  1297,  1304,  1305,  1312,  1313,  1320,  1849,  1856,  1857,  1864,  1865,  1872,  1873,  1880,  1881,  1888
  1889,  1896,  1897,  1904,  1905,  1912,  1913,  1920,  1921,  1928,  1929,  1936,  1937,  1944,  1945,  1952
  1953,  1960,  1961,  1968,  1969,  1976,  1977,  1984,  1985,  1992,  1993,  2000,  2001,  2008,  2009,  2016
  2017,  2024,  2025,  2032,  2033,  2040,  2041,  2048,  2049,  2056,  2057,  2064,  2065,  2072,  2073,  2080
  2081,  2088,  2089,  2096,  2097,  2104,  2105,  2112,  2113,  2114,  2115,  2116,  2117,  2148,  2149,  2150
  2151,  2152,  2233,  2234,  2235,  2236,  2237,  2268,  2269,  2270,  2271,  2272,  2273,  2280,  2281,  2288
  2289,  2296,  2297,  2304,  2305,  2312,  2393,  2400,  2401,  2408,  2409,  2416,  2417,  2424,  2425,  2432
  2433,  2440,  2441,  2448,  2449,  2456,  2457,  2464,  2465,  2472,  2473,  2480,  2481,  2488,  2489,  2496
** ... 144 like lines cut
*Nset, nset=EDGES-TRAN
    1,    2,    3,    4,    5,    6,    7,    8,    9,   10,   11,   12,   13,   14,   15,   16
   17,   18,   19,   20,   21,   22,   23,   24,   25,   26,   27,   28,   29,   30,   31,   32
   33,   34,   35,   36,   37,   38,   39,   40,   41,   42,   43,   44,   45,   46,   47,   48
   49,   50,   51,   52,   53,   54,   55,   56,   57,   58,   59,   60,   61,   62,   63,   64
   65,   66,   67,   68,   69,   70,   71,   72,   73,   74,   75,   76,   77,   78,   79,  112
  113,  114,  115,  116,  117,  118,  151,  152,  153,  154,  155,  156,  157,  190,  191,  192
  193,  194,  195,  196,  241,  242,  243,  244,  245,  246,  247,  280,  281,  282,  283,  284
  285,  286,  319,  320,  321,  322,  323,  324,  325,  358,  359,  360,  361,  362,  363,  364
  417,  418,  419,  420,  421,  422,  423,  432,  433,  434,  435,  436,  437,  438,  445,  446
  447,  448,  449,  450,  451,  452,  453,  454,  455,  456,  457,  458,  463,  464,  465,  466
  467,  468,  469,  470,  471,  472,  473,  474,  475,  476,  487,  488,  489,  490,  491,  492
  493,  526,  527,  528,  529,  530,  531,  532,  568,  569,  570,  571,  572,  573,  574,  639
  640,  641,  642,  643,  644,  645,  713,  714,  715,  716,  717,  718,  719,  752,  753,  754
  755,  756,  757,  758,  802,  803,  804,  805,  806,  807,  808,  817,  818,  819,  820,  821
  822,  823,  834,  835,  836,  837,  838,  839,  840,  845,  846,  847,  848,  849,  850,  851
  855,  856,  857,  858,  859,  860,  861,  894,  895,  896,  897,  898,  899,  900,  949,  950
  951,  952,  953,  954,  955,  988,  989,  990,  991,  992,  993,  994, 1051, 1052, 1053, 1054
 1055, 1056, 1057, 1066, 1067, 1068, 1069, 1070, 1071, 1072, 1073, 1074, 1075, 1076, 1077, 1078
 1079, 1092, 1093, 1094, 1095, 1096, 1097, 1098, 1135, 1136, 1137, 1138, 1139, 1140, 1141, 1210
 1211, 1212, 1213, 1214, 1215, 1216, 1261, 1262, 1263, 1264, 1265, 1266, 1267, 1280, 1281, 1282
** ... 6 like lines cut
*Elset, elset=EDGES-TRAN
     1,     2,     3,     4,     5,     6,     7,     8,   257,   258,   259,   260,   261,   262,   263,   264
   793,   794,   795,   796,   797,   798,   799,   800,  1049,  1050,  1051,  1052,  1053,  1054,  1055,  1056
  1057,  1058,  1059,  1060,  1061,  1062,  1063,  1064,  1313,  1314,  1315,  1316,  1317,  1318,  1319,  1320
  1849,  1850,  1851,  1852,  1853,  1854,  1855,  1856,  2105,  2106,  2107,  2108,  2109,  2110,  2111,  2112
  2113,  2117,  2118,  2122,  2123,  2127,  2128,  2132,  2133,  2137,  2138,  2142,  2143,  2147,  2148,  2152
  2233,  2237,  2238,  2242,  2243,  2247,  2248,  2252,  2253,  2257,  2258,  2262,  2263,  2267,  2268,  2272
  2273,  2274,  2275,  2276,  2277,  2278,  2279,  2280,  2305,  2306,  2307,  2308,  2309,  2310,  2311,  2312
  2393,  2394,  2395,  2396,  2397,  2398,  2399,  2400,  2425,  2426,  2427,  2428,  2429,  2430,  2431,  2432
  2433,  2434,  2435,  2436,  2437,  2438,  2439,  2440,  2689,  2690,  2691,  2692,  2693,  2694,  2695,  2696
  3225,  3226,  3227,  3228,  3229,  3230,  3231,  3232,  3481,  3482,  3483,  3484,  3485,  3486,  3487,  3488
  3489,  3490,  3491,  3492,  3493,  3494,  3495,  3496,  3745,  3746,  3747,  3748,  3749,  3750,  3751,  3752
  4281,  4282,  4283,  4284,  4285,  4286,  4287,  4288,  4537,  4538,  4539,  4540,  4541,  4542,  4543,  4544
  4545,  4546,  4547,  4548,  4549,  4550,  4551,  4552,  4801,  4802,  4803,  4804,  4805,  4806,  4807,  4808
  5337,  5338,  5339,  5340,  5341,  5342,  5343,  5344,  5593,  5594,  5595,  5596,  5597,  5598,  5599,  5600
  5601,  5605,  5606,  5610,  5611,  5615,  5616,  5620,  5621,  5625,  5626,  5630,  5631,  5635,  5636,  5640
  5721,  5725,  5726,  5730,  5731,  5735,  5736,  5740,  5741,  5745,  5746,  5750,  5751,  5755,  5756,  5760
  5761,  5765,  5766,  5770,  5771,  5775,  5776,  5780,  5781,  5785,  5786,  5790,  5791,  5795,  5796,  5800
  5881,  5885,  5886,  5890,  5891,  5895,  5896,  5900,  5901,  5905,  5906,  5910,  5911,  5915,  5916,  5920
  5921,  5922,  5923,  5924,  5925,  5926,  5927,  5928,  6177,  6178,  6179,  6180,  6181,  6182,  6183,  6184
  6977,  6978,  6979,  6980,  6981,  6982,  6983,  6984,  7233,  7234,  7235,  7236,  7237,  7238,  7239,  7240
** ... 40 like lines cut
*Nset, nset=EDGES-THIC
    1,    2,    3,    4,    5,    6,    7,    8,    9,   10,   11,   12,   13,   14,   15,   16
   17,   18,   19,   20,   21,   22,   23,   24,   25,   26,   27,   28,   29,   30,   31,   32
   33,   34,   35,   36,   37,   38,   39,   40,   41,   42,   43,   44,   45,   46,   47,   48
   49,   50,   51,   52,   53,   54,   55,   56,   57,   58,   59,   60,   61,   62,   63,   64
   65,   66,   67,   68,   69,   70,   71,   72,  229,  230,  231,  232,  233,  234,  235,  236
  237,  238,  239,  240,  397,  398,  399,  400,  401,  402,  403,  404,  405,  406,  407,  408
  439,  440,  441,  442,  443,  444,  481,  482,  483,  484,  485,  486,  565,  566,  567,  710
  711,  712,  791,  792,  793,  824,  825,  826,  827,  828,  829,  852,  853,  854,  933,  934
  935,  936,  937,  938,  939,  940,  941,  942,  943,  944,  945,  946,  947,  948, 1027, 1028
 1029, 1030, 1031, 1032, 1033, 1034, 1035, 1036, 1037, 1038, 1039, 1040, 1041, 1042, 1058, 1059
 1060, 1061, 1062, 1063, 1064, 1065, 1084, 1085, 1086, 1087, 1088, 1089, 1090, 1091, 1131, 1132
 1133, 1134, 1206, 1207, 1208, 1209, 1249, 1250, 1251, 1252, 1268, 1269, 1270, 1271, 1272, 1273
 1274, 1275, 1287, 1288, 1289, 1290, 1465, 1466, 1467, 1468, 1469, 1470, 1471, 1472, 1473, 1474
 1475, 1476, 1477, 1478, 1479, 1480, 1503, 1504, 1505, 1506, 1507, 1508, 1509, 1510, 1511, 1512
 1513, 1514, 1515, 1516, 1517, 1518, 1537, 1538, 1539, 1540, 1541, 1542, 1543, 1544, 1616, 1617
 1618, 1619, 1659, 1660, 1661, 1662, 1734, 1735, 1736, 1737, 1738, 1739, 1740, 1741, 1781, 1782
 1783, 1784, 1800, 1801, 1802, 1803, 1804, 1805, 1806, 1807, 1819, 1820, 1821, 1822
*Elset, elset=EDGES-THIC
     1,     8,   257,   264,   265,   272,   521,   528,   529,   536,   785,   792,   793,   800,  1049,  1056
  1057,  1064,  1313,  1320,  1321,  1328,  1577,  1584,  1585,  1592,  1841,  1848,  1849,  1856,  2105,  2112
  2113,  2117,  2148,  2152,  2153,  2157,  2188,  2192,  2193,  2197,  2228,  2232,  2233,  2237,  2268,  2272
  2273,  2280,  2305,  2312,  2313,  2320,  2345,  2352,  2353,  2360,  2385,  2392,  2393,  2400,  2425,  2432
  2433,  2440,  2689,  2696,  2697,  2704,  2953,  2960,  2961,  2968,  3217,  3224,  3225,  3232,  3481,  3488
  3489,  3496,  3745,  3752,  3753,  3760,  4009,  4016,  4017,  4024,  4273,  4280,  4281,  4288,  4537,  4544
  4545,  4552,  4801,  4808,  4809,  4816,  5065,  5072,  5073,  5080,  5329,  5336,  5337,  5344,  5593,  5600
  5601,  5605,  5636,  5640,  5641,  5645,  5676,  5680,  5681,  5685,  5716,  5720,  5721,  5725,  5756,  5760
  5761,  5765,  5796,  5800,  5801,  5805,  5836,  5840,  5841,  5845,  5876,  5880,  5881,  5885,  5916,  5920
  5921,  5928,  6177,  6184,  6185,  6192,  6441,  6448,  6449,  6456,  6705,  6712,  6713,  6720,  6969,  6976
  6977,  6984,  7233,  7240,  7241,  7248,  7497,  7504,  7505,  7512,  7761,  7768,  7769,  7776,  8025,  8032
  8033,  8040,  8289,  8296,  8297,  8304,  8553,  8560,  8561,  8565,  8596,  8600,  8601,  8605,  8636,  8640
  8641,  8645,  8676,  8680,  8681,  8685,  8716,  8720,  8721,  8725,  8756,  8760,  8761,  8768,  8793,  8800
  8801,  8808,  8833,  8840,  8841,  8848,  8873,  8880,  8881,  8888,  8913,  8920,  8921,  8928,  8953,  8960
  8961,  8968,  9217,  9224,  9225,  9232,  9481,  9488,  9489,  9496,  9745,  9752,  9753,  9760, 10009, 10016
 10017, 10024, 10273, 10280, 10281, 10288, 10537, 10544, 10545, 10552, 10801, 10808, 10809, 10816, 11065, 11072
 11073, 11080, 11329, 11336, 11337, 11344, 11593, 11600, 11601, 11608, 11857, 11864, 11865, 11872, 12121, 12128
 12129, 12136, 12385, 12392, 12393, 12400, 12649, 12656, 12657, 12664, 12913, 12920, 12921, 12925, 12956, 12960
 12961, 12965, 12996, 13000, 13001, 13005, 13036, 13040, 13041, 13045, 13076, 13080, 13081, 13085, 13116, 13120
 13121, 13125, 13156, 13160, 13161, 13165, 13196, 13200, 13201, 13205, 13236, 13240, 13241, 13245, 13276, 13280
** ... 15 like lines cut
*Nset, nset=EDGES-THIC-S1
    5,    6,    7,    8,   13,   14,   15,   16,   19,   20,   23,   24,   26,   28,   30,   33
   34,   36,   55,   56,   57,   58,   59,   60,   61,   62,   63,   64,   65,   66,   67,   68
   69,   70,   71,   72, 1465, 1466, 1467, 1468, 1469, 1470, 1471, 1472, 1473, 1474, 1475, 1476
 1477, 1478, 1479, 1480, 1503, 1504, 1505, 1506, 1507, 1508, 1509, 1510, 1511, 1512, 1513, 1514
 1515, 1516, 1517, 1518, 1537, 1538, 1539, 1540, 1541, 1542, 1543, 1544, 1616, 1617, 1618, 1619
 1659, 1660, 1661, 1662, 1734, 1735, 1736, 1737, 1738, 1739, 1740, 1741, 1781, 1782, 1783, 1784
 1800, 1801, 1802, 1803, 1804, 1805, 1806, 1807, 1819, 1820, 1821, 1822
*Elset, elset=EDGES-THIC-S1
 14641, 14648, 14897, 14904, 14905, 14912, 15161, 15168, 15169, 15176, 15425, 15432, 15433, 15440, 15689, 15696
 15697, 15704, 15953, 15960, 15961, 15965, 15996, 16000, 16001, 16005, 16036, 16040, 16041, 16045, 16076, 16080
 16081, 16085, 16116, 16120, 16121, 16125, 16156, 16160, 16161, 16168, 16193, 16200, 16201, 16208, 16233, 16240
 16241, 16248, 16273, 16280, 16281, 16288, 16313, 16320, 16321, 16328, 16353, 16360, 16361, 16368, 16617, 16624
 16625, 16632, 16881, 16888, 16889, 16896, 17145, 17152, 17153, 17160, 17409, 17416, 17417, 17424, 17673, 17680
 17681, 17713, 17912, 17944, 17945, 17977, 18176, 18208, 18209, 18241, 18440, 18472, 18473, 18505, 18704, 18736
 18737, 18769, 18968, 19000, 19001, 19008, 19257, 19264, 19265, 19272, 19521, 19528, 19529, 19536, 19785, 19792
 19793, 19800, 20049, 20056, 20057, 20064, 20313, 20320, 20321, 20353, 20552, 20584, 20585, 20617, 20816, 20848
 20849, 20881, 21080, 21112, 21113, 21145, 21344, 21376, 21377, 21409, 21608, 21640, 21641, 21645, 21676, 21680
 21681, 21685, 21716, 21720, 21721, 21725, 21756, 21760, 21761, 21765, 21796, 21800, 21801, 21805, 21836, 21840
 21841, 21845, 21876, 21880, 21881, 21885, 21916, 21920, 21921, 21925, 21956, 21960, 21961, 21965, 21996, 22000
 22001, 22005, 22036, 22040, 23097, 23129, 23130, 23162, 23163, 23195, 23196, 23228, 23229, 23261, 24252, 24284
 24285, 24317, 24318, 24350, 24351, 24383, 24384, 24416
*Nset, nset=EDGES-THIC-CORE
   1,   2,   3,   4,   5,   6,   7,   8,   9,  10,  11,  12,  13,  14,  15,  16
  17,  18,  19,  20,  21,  22,  23,  24,  25,  26,  27,  28,  29,  30,  31,  32
  33,  34,  35,  36, 229, 230, 231, 232, 233, 234, 235, 236, 237, 238, 239, 240
 397, 398, 399, 400, 401, 402, 403, 404, 405, 406, 407, 408, 439, 440, 441, 442
 443, 444, 481, 482, 483, 484, 485, 486, 565, 566, 567, 710, 711, 712, 791, 792
 793, 824, 825, 826, 827, 828, 829, 852, 853, 854
*Elset, elset=EDGES-THIC-CORE
     1,     8,   257,   264,   265,   272,   521,   528,   529,   536,   785,   792,   793,   800,  1049,  1056
  1057,  1064,  1313,  1320,  1321,  1328,  1577,  1584,  1585,  1592,  1841,  1848,  1849,  1856,  2105,  2112
  2113,  2117,  2148,  2152,  2153,  2157,  2188,  2192,  2193,  2197,  2228,  2232,  2233,  2237,  2268,  2272
  2273,  2280,  2305,  2312,  2313,  2320,  2345,  2352,  2353,  2360,  2385,  2392,  2393,  2400,  2425,  2432
  2433,  2440,  2689,  2696,  2697,  2704,  2953,  2960,  2961,  2968,  3217,  3224,  3225,  3232,  3481,  3488
  3489,  3496,  3745,  3752,  3753,  3760,  4009,  4016,  4017,  4024,  4273,  4280,  4281,  4288,  4537,  4544
  4545,  4552,  4801,  4808,  4809,  4816,  5065,  5072,  5073,  5080,  5329,  5336,  5337,  5344,  5593,  5600
  5601,  5605,  5636,  5640,  5641,  5645,  5676,  5680,  5681,  5685,  5716,  5720,  5721,  5725,  5756,  5760
  5761,  5765,  5796,  5800,  5801,  5805,  5836,  5840,  5841,  5845,  5876,  5880,  5881,  5885,  5916,  5920
 22041, 22048, 22297, 22304, 22305, 22312, 22561, 22568, 22569, 22576, 22825, 22832, 22833, 22840, 23089, 23096
*Nset, nset=EDGES-THIC-S2
    1,    2,    3,    4,    9,   10,   11,   12,   17,   18,   21,   22,   25,   27,   29,   31
   32,   35,   37,   38,   39,   40,   41,   42,   43,   44,   45,   46,   47,   48,   49,   50
   51,   52,   53,   54,  933,  934,  935,  936,  937,  938,  939,  940,  941,  942,  943,  944
  945,  946,  947,  948, 1027, 1028, 1029, 1030, 1031, 1032, 1033, 1034, 1035, 1036, 1037, 1038
 1039, 1040, 1041, 1042, 1058, 1059, 1060, 1061, 1062, 1063, 1064, 1065, 1084, 1085, 1086, 1087
 1088, 1089, 1090, 1091, 1131, 1132, 1133, 1134, 1206, 1207, 1208, 1209, 1249, 1250, 1251, 1252
 1268, 1269, 1270, 1271, 1272, 1273, 1274, 1275, 1287, 1288, 1289, 1290
*Elset, elset=EDGES-THIC-S2
  5921,  5928,  6177,  6184,  6185,  6192,  6441,  6448,  6449,  6456,  6705,  6712,  6713,  6720,  6969,  6976
  6977,  6984,  7233,  7240,  7241,  7248,  7497,  7504,  7505,  7512,  7761,  7768,  7769,  7776,  8025,  8032
  8033,  8040,  8289,  8296,  8297,  8304,  8553,  8560,  8561,  8565,  8596,  8600,  8601,  8605,  8636,  8640
  8641,  8645,  8676,  8680,  8681,  8685,  8716,  8720,  8721,  8725,  8756,  8760,  8761,  8768,  8793,  8800
  8801,  8808,  8833,  8840,  8841,  8848,  8873,  8880,  8881,  8888,  8913,  8920,  8921,  8928,  8953,  8960
  8961,  8968,  9217,  9224,  9225,  9232,  9481,  9488,  9489,  9496,  9745,  9752,  9753,  9760, 10009, 10016
 10017, 10024, 10273, 10280, 10281, 10288, 10537, 10544, 10545, 10552, 10801, 10808, 10809, 10816, 11065, 11072
 11073, 11080, 11329, 11336, 11337, 11344, 11593, 11600, 11601, 11608, 11857, 11864, 11865, 11872, 12121, 12128
 12129, 12136, 12385, 12392, 12393, 12400, 12649, 12656, 12657, 12664, 12913, 12920, 12921, 12925, 12956, 12960
 12961, 12965, 12996, 13000, 13001, 13005, 13036, 13040, 13041, 13045, 13076, 13080, 13081, 13085, 13116, 13120
 13121, 13125, 13156, 13160, 13161, 13165, 13196, 13200, 13201, 13205, 13236, 13240, 13241, 13245, 13276, 13280
 13281, 13285, 13316, 13320, 13321, 13328, 13329, 13336, 13337, 13344, 13345, 13352, 13353, 13360, 14601, 14608
 14609, 14616, 14617, 14624, 14625, 14632, 14633, 14640
*Nset, nset=EDGES-SUPPORT-1
   67,   68,   69, 1663, 1664, 1665, 1666, 1667, 1668, 1669, 1774, 1775, 1776, 1777, 1778, 1779
 1780,
*Elset, elset=EDGES-SUPPORT-1
 20057, 20058, 20059, 20060, 20061, 20062, 20063, 20064, 21377, 21410, 21443, 21476, 21509, 21542, 21575, 21608
 21801, 21806, 21811, 21816, 21821, 21826, 21831, 21836, 22005, 22010, 22015, 22020, 22025, 22030, 22035, 22040
*Nset, nset=EDGES-SUPPORT-2
   59,   60,   64, 1485, 1486, 1487, 1488, 1489, 1490, 1491, 1519, 1520, 1521, 1522, 1523, 1524
 1525,
*Elset, elset=EDGES-SUPPORT-2
 16125, 16130, 16135, 16140, 16145, 16150, 16155, 16160, 16321, 16322, 16323, 16324, 16325, 16326, 16327, 16328
 17673, 17674, 17675, 17676, 17677, 17678, 17679, 17680, 23261, 23426, 23591, 23756, 23921, 24086, 24251, 24416
*Nset, nset=EDGES-LOADING-1
   37,   38,   50,  855,  856,  857,  858,  859,  860,  861, 1135, 1136, 1137, 1138, 1139, 1140
 1141,
*Elset, elset=EDGES-LOADING-1
  6977,  6978,  6979,  6980,  6981,  6982,  6983,  6984, 11337, 11338, 11339, 11340, 11341, 11342, 11343, 11344
 12913, 12914, 12915, 12916, 12917, 12918, 12919, 12920, 14633, 14634, 14635, 14636, 14637, 14638, 14639, 14640
*Nset, nset=EDGES-LOADING-2
   43,   44,   49,  988,  989,  990,  991,  992,  993,  994, 1092, 1093, 1094, 1095, 1096, 1097
 1098,
*Elset, elset=EDGES-LOADING-2
  8553,  8554,  8555,  8556,  8557,  8558,  8559,  8560, 10017, 10018, 10019, 10020, 10021, 10022, 10023, 10024
 11593, 11594, 11595, 11596, 11597, 11598, 11599, 11600, 13353, 13354, 13355, 13356, 13357, 13358, 13359, 13360
*Nset, nset=VERTICES-RBX-1
 55, 66
*Nset, nset=VERTICES-RBY-1
 58,
*Nset, nset=VERTICES-RBX-2
 56, 65
*Nset, nset=VERTICES-RBY-2
 57,
*Orientation, name=Ori-3
1., 0., 0., 0., 1., 0.
1, 0.
** Section: Section-Foam
*Solid Section, elset=CELLS-CORE, orientation=Ori-3, material=Foam
,
*Orientation, name=Ori-2
1., 0., 0., 0., 1., 0.
1, 0.
** Section: Section-Skin
*Solid Section, elset=CELLS-TOP, orientation=Ori-2, material=FiberComposite
,
*Orientation, name=Ori-1
1., 0., 0., 0., 1., 0.
1, 0.
** Section: Section-Skin
*Solid Section, elset=CELLS-BOT, orientation=Ori-1, material=FiberComposite
,
*End Part
**  
**
** ASSEMBLY
**
*Assembly, name=Assembly
**  
*Instance, name=Beam, part=Beam
*End Instance
**  
*End Assembly
** 
** MATERIALS
** 
*Material, name=FiberComposite
*Elastic, type=ENGINEERING CONSTANTS
130000.,10000.,10000.,  0.28,  0.28,   0.5, 4500., 4500.
 3500.,
*Material, name=Foam
*Elastic, type=ENGINEERING CONSTANTS
100., 100., 100.,  0.3,  0.3,  0.3, 38.5, 38.5
 38.5,
** 
** BOUNDARY CONDITIONS
** 
** Name: BC-LOADING-1 Type: Displacement/Rotation
*Boundary
Beam.EDGES-LOADING-1, 3, 3
** Name: BC-LOADING-2 Type: Displacement/Rotation
*Boundary
Beam.EDGES-LOADING-2, 3, 3
** Name: BC-RBX-1 Type: Displacement/Rotation
*Boundary
Beam.VERTICES-RBX-1, 1, 1
** Name: BC-RBX-2 Type: Displacement/Rotation
*Boundary
Beam.VERTICES-RBX-2, 1, 1
** Name: BC-RBY-1 Type: Displacement/Rotation
*Boundary
Beam.VERTICES-RBY-1, 2, 2
** Name: BC-RBY-2 Type: Displacement/Rotation
*Boundary
Beam.VERTICES-RBY-2, 2, 2
** Name: BC-SUPPORT-1 Type: Displacement/Rotation
*Boundary
Beam.EDGES-SUPPORT-1, 3, 3
** Name: BC-SUPPORT-2 Type: Displacement/Rotation
*Boundary
Beam.EDGES-SUPPORT-2, 3, 3
** ----------------------------------------------------------------
** 
** STEP: Step-1
** 
*Step, name=Step-1, nlgeom=NO
*Static
1., 1., 1e-05, 1.
** 
** BOUNDARY CONDITIONS
** 
** Name: BC-LOADING-1 Type: Displacement/Rotation
*Boundary
Beam.EDGES-LOADING-1, 3, 3, -10.
** Name: BC-LOADING-2 Type: Displacement/Rotation
*Boundary
Beam.EDGES-LOADING-2, 3, 3, -10.
** 
** OUTPUT REQUESTS
** 
*Restart, write, frequency=0
** 
** FIELD OUTPUT: F-Output-1
** 
*Output, field, variable=PRESELECT
** 
** HISTORY OUTPUT: H-Output-1
** 
*Output, history, variable=PRESELECT
*End Step
