*Heading
** Job name: Job-1 Model name: Model-1
** Generated by: Abaqus/CAE 2022
*Preprint, echo=NO, model=NO, history=NO, contact=NO
**
** PARTS
**
*Part, name=Part-1
*Node
      1,          30.,        -1.25,          20.
      2,           0.,        -1.25,          20.
      3,           0.,        -1.75,          20.
      4,          30.,        -1.75,          20.
      5,           0.,        -1.25,           0.
      6,           0.,        -1.75,           0.
      7,          30.,        -1.75,           0.
      8,          30.,        -1.25,           0.
      9,          30.,        10.75,          20.
     10,           0.,        10.75,          20.
     11,           0.,        10.75,           0.
     12,          30.,        10.75,           0.
     13,           0.,        -1.25,          25.
     14,           0.,        -1.75,          25.
     15,          30.,        -1.75,          25.
     16,          30.,        -1.25,          25.
     17,           0.,        10.75,          25.
     18,          30.,        10.75,          25.
     19,          30.,        11.25,          20.
     20,          30.,        11.25,           0.
** ... 3976 like lines cut
*Element, type=C3D8R
 1,  148, 1041, 1069,  141,    1,  113,  126,    4
 2, 1041, 1042, 1070, 1069,  113,  114,  125,  126
 3, 1042, 1043, 1071, 1070,  114,  115,  124,  125
 4, 1043, 1044, 1072, 1071,  115,  116,  123,  124
 5, 1044, 1045, 1073, 1072,  116,  117,  122,  123
 6, 1045, 1046, 1074, 1073,  117,  118,  121,  122
 7, 1046, 1047, 1075, 1074,  118,  119,  120,  121
 8, 1047,  153,  152, 1075,  119,    2,    3,  120
 9,  147, 1048, 1076,  142,  148, 1041, 1069,  141
10, 1048, 1049, 1077, 1076, 1041, 1042, 1070, 1069
11, 1049, 1050, 1078, 1077, 1042, 1043, 1071, 1070
12, 1050, 1051, 1079, 1078, 1043, 1044, 1072, 1071
13, 1051, 1052, 1080, 1079, 1044, 1045, 1073, 1072
14, 1052, 1053, 1081, 1080, 1045, 1046, 1074, 1073
15, 1053, 1054, 1082, 1081, 1046, 1047, 1075, 1074
16, 1054,  154,  151, 1082, 1047,  153,  152, 1075
17,  146, 1055, 1083,  143,  147, 1048, 1076,  142
18, 1055, 1056, 1084, 1083, 1048, 1049, 1077, 1076
19, 1056, 1057, 1085, 1084, 1049, 1050, 1078, 1077
20, 1057, 1058, 1086, 1085, 1050, 1051, 1079, 1078
** ... 2900 like lines cut
*Nset, nset=Set-1
    9,   10,   11,   12,   17,   18,   19,   20,   21,   22,   25,   26,   31,   32,   36,   37
   41,   42,   43,   44,   45,   46,   55,   56,   57,   58,   63,   64,   65,   66,   67,   68
   69,   70,   71,   72,   75,   76,   79,   80,   87,   88,   91,   92,   93,   94,   95,   96
   99,  100,  102,  103,  109,  110,  111,  112,  157,  158,  159,  160,  161,  162,  163,  168
  169,  170,  171,  172,  173,  174,  179,  180,  181,  182,  183,  184,  185,  186,  201,  202
  203,  204,  205,  206,  207,  212,  213,  214,  215,  216,  217,  218,  219,  220,  221,  222
  223,  224,  225,  226,  227,  228,  229,  230,  231,  232,  233,  243,  244,  245,  246,  247
  248,  249,  268,  269,  270,  271,  272,  273,  274,  277,  278,  279,  280,  281,  282,  283
  284,  285,  286,  287,  288,  289,  290,  291,  292,  293,  311,  312,  313,  314,  315,  316
  317,  318,  319,  320,  321,  322,  323,  324,  325,  326,  327,  395,  396,  397,  398,  399
  400,  401,  411,  412,  413,  414,  415,  416,  417,  418,  419,  420,  421,  422,  423,  424
  425,  426,  427,  428,  429,  430,  431,  432,  433,  434,  435,  436,  437,  438,  439,  440
  441,  442,  443,  444,  445,  446,  447,  448,  449,  450,  451,  452,  453,  454,  455,  456
  457,  458,  459,  460,  461,  462,  463,  464,  465,  494,  495,  496,  497,  498,  499,  500
  505,  506,  507,  508,  509,  510,  511,  598,  599,  600,  601,  602,  603,  604,  609,  610
  611,  612,  613,  614,  615,  616,  617,  618,  619,  620,  621,  622,  623,  624,  625,  626
  627,  628,  629,  630,  631,  632,  633,  634,  635,  636,  637,  638,  639,  640,  641,  642
  643,  644,  645,  646,  647,  648,  649,  650,  651,  652,  653,  654,  655,  656,  657,  658
  659,  660,  661,  662,  663,  664,  665,  666,  667,  668,  669,  670,  680,  681,  682,  683
  684,  685,  686,  698,  699,  700,  701,  702,  703,  704,  730,  731,  732,  733,  734,  735
** ... 64 like lines cut
*Elset, elset=Set-1
  193,  194,  195,  196,  197,  198,  199,  200,  201,  202,  203,  204,  205,  206,  207,  208
  209,  210,  211,  212,  213,  214,  215,  216,  217,  218,  219,  220,  221,  222,  223,  224
  225,  226,  227,  228,  229,  230,  231,  232,  873,  874,  875,  876,  877,  878,  879,  880
  881,  882,  883,  884,  885,  886,  887,  888,  889,  890,  891,  892,  893,  894,  895,  896
  897,  898,  899,  900,  901,  902,  903,  904,  905,  906,  907,  908,  909,  910,  911,  912
  913,  914,  915,  916,  917,  918,  919,  920,  921,  922,  923,  924,  925,  926,  927,  928
  929,  930,  931,  932,  933,  934,  935,  936,  937,  938,  939,  940,  941,  942,  943,  944
  945,  946,  947,  948,  949,  950,  951,  952,  953,  954,  955,  956,  957,  958,  959,  960
  961,  962,  963,  964,  965,  966,  967,  968,  969,  970,  971,  972,  973,  974,  975,  976
  977,  978,  979,  980,  981,  982,  983,  984,  985,  986,  987,  988,  989,  990,  991,  992
  993,  994,  995,  996,  997,  998,  999, 1000, 1001, 1002, 1003, 1004, 1005, 1006, 1007, 1008
 1009, 1010, 1011, 1012, 1013, 1014, 1015, 1016, 1017, 1018, 1019, 1020, 1021, 1022, 1023, 1024
 1665, 1666, 1667, 1668, 1669, 1670, 1671, 1672, 1673, 1674, 1675, 1676, 1677, 1678, 1679, 1680
 2353, 2354, 2355, 2356, 2357, 2358, 2359, 2360, 2361, 2362, 2363, 2364, 2365, 2366, 2367, 2368
 2369, 2370, 2371, 2372, 2373, 2374, 2375, 2376, 2377, 2378, 2379, 2380, 2381, 2382, 2383, 2384
 2385, 2386, 2387, 2388, 2389, 2390, 2391, 2392, 2393, 2394, 2395, 2396, 2397, 2398, 2399, 2400
 2401, 2402, 2403, 2404, 2405, 2406, 2407, 2408, 2409, 2410, 2411, 2412, 2413, 2414, 2415, 2416
 2417, 2418, 2419, 2420, 2421, 2422, 2423, 2424, 2425, 2426, 2427, 2428, 2429, 2430, 2431, 2432
 2433, 2434, 2435, 2436, 2437, 2438, 2439, 2440, 2441, 2442, 2443, 2444, 2445, 2446, 2447, 2448
 2449, 2450, 2451, 2452, 2453, 2454, 2455, 2456, 2457, 2458, 2459, 2460, 2461, 2462, 2463, 2464
** ... 17 like lines cut
*Nset, nset=Set-2
    1,    2,    5,    8,    9,   10,   11,   12,   13,   16,   17,   18,   23,   24,   25,   26
   29,   30,   31,   32,   35,   36,   37,   38,   47,   48,   51,   52,   55,   56,   57,   58
   59,   60,   63,   64,   73,   74,   75,   76,   77,   78,   79,   80,   85,   86,   87,   88
   97,   98,   99,  100,  101,  102,  103,  104,  113,  114,  115,  116,  117,  118,  119,  127
  128,  129,  130,  131,  132,  133,  145,  146,  147,  148,  153,  154,  155,  156,  157,  158
  159,  160,  161,  162,  163,  164,  165,  166,  167,  168,  169,  170,  171,  172,  173,  174
  175,  176,  177,  178,  179,  180,  181,  182,  183,  184,  185,  186,  187,  188,  189,  190
  191,  192,  193,  201,  202,  203,  204,  205,  206,  207,  208,  209,  210,  211,  234,  235
  236,  237,  238,  239,  240,  241,  242,  243,  244,  245,  246,  247,  248,  249,  250,  251
  259,  260,  261,  262,  263,  264,  265,  266,  267,  268,  269,  270,  271,  272,  273,  274
  275,  276,  277,  278,  279,  280,  281,  282,  283,  284,  285,  286,  287,  288,  289,  290
  291,  292,  293,  294,  295,  296,  297,  298,  299,  300,  301,  302,  303,  304,  305,  306
  307,  308,  309,  310,  311,  312,  313,  314,  315,  316,  317,  318,  319,  320,  321,  322
  323,  324,  325,  326,  327,  328,  329,  330,  331,  332,  333,  334,  335,  336,  337,  338
  339,  340,  341,  342,  343,  344,  386,  387,  388,  389,  390,  391,  392,  393,  394,  395
  396,  397,  398,  399,  400,  401,  402,  403,  466,  467,  468,  469,  470,  471,  472,  480
  481,  482,  483,  484,  485,  486,  494,  495,  496,  497,  498,  499,  500,  501,  502,  503
  504,  505,  506,  507,  508,  509,  510,  511,  512,  513,  514,  515,  516,  517,  518,  519
  520,  521,  522,  547,  548,  549,  550,  551,  552,  553,  554,  555,  556,  557,  558,  559
  560,  561,  562,  563,  581,  582,  583,  584,  585,  586,  587,  588,  589,  590,  591,  592
** ... 147 like lines cut
*Elset, elset=Set-2
   41,   42,   43,   44,   45,   46,   47,   48,   49,   50,   51,   52,   53,   54,   55,   56
   57,   58,   59,   60,   61,   62,   63,   64,   65,   66,   67,   68,   69,   70,   71,   72
   73,   74,   75,   76,   77,   78,   79,   80,   81,   82,   83,   84,   85,   86,   87,   88
   89,   90,   91,   92,   93,   94,   95,   96,   97,   98,   99,  100,  101,  102,  103,  104
  105,  106,  107,  108,  109,  110,  111,  112,  113,  114,  115,  116,  117,  118,  119,  120
  121,  122,  123,  124,  125,  126,  127,  128,  129,  130,  131,  132,  133,  134,  135,  136
  137,  138,  139,  140,  141,  142,  143,  144,  145,  146,  147,  148,  149,  150,  151,  152
  153,  154,  155,  156,  157,  158,  159,  160,  169,  170,  171,  172,  173,  174,  175,  176
  177,  178,  179,  180,  181,  182,  183,  184,  185,  186,  187,  188,  189,  190,  191,  192
  233,  234,  235,  236,  237,  238,  239,  240,  241,  242,  243,  244,  245,  246,  247,  248
  249,  250,  251,  252,  253,  254,  255,  256,  265,  266,  267,  268,  269,  270,  271,  272
  273,  274,  275,  276,  277,  278,  279,  280,  281,  282,  283,  284,  285,  286,  287,  288
  289,  290,  291,  292,  293,  294,  295,  296,  297,  298,  299,  300,  301,  302,  303,  304
  305,  306,  307,  308,  309,  310,  311,  312,  313,  314,  315,  316,  317,  318,  319,  320
  321,  322,  323,  324,  325,  326,  327,  328,  329,  330,  331,  332,  333,  334,  335,  336
  337,  338,  339,  340,  341,  342,  343,  344,  345,  346,  347,  348,  349,  350,  351,  352
  353,  354,  355,  356,  357,  358,  359,  360,  361,  362,  363,  364,  365,  366,  367,  368
  369,  370,  371,  372,  373,  374,  375,  376,  377,  378,  379,  380,  381,  382,  383,  384
  385,  386,  387,  388,  389,  390,  391,  392,  393,  394,  395,  396,  397,  398,  399,  400
  401,  402,  403,  404,  405,  406,  407,  408,  409,  410,  411,  412,  413,  414,  415,  416
** ... 90 like lines cut
*Nset, nset=Set-3
    1,    2,    3,    4,    5,    6,    7,    8,   13,   14,   15,   16,   23,   24,   27,   28
   29,   30,   33,   34,   35,   38,   39,   40,   47,   48,   49,   50,   51,   52,   53,   54
   59,   60,   61,   62,   73,   74,   77,   78,   81,   82,   83,   84,   85,   86,   89,   90
   97,   98,  101,  104,  105,  106,  107,  108,  113,  114,  115,  116,  117,  118,  119,  120
  121,  122,  123,  124,  125,  126,  127,  128,  129,  130,  131,  132,  133,  134,  135,  136
  137,  138,  139,  140,  141,  142,  143,  144,  145,  146,  147,  148,  149,  150,  151,  152
  153,  154,  155,  156,  187,  188,  189,  190,  191,  192,  193,  194,  195,  196,  197,  198
  199,  200,  234,  235,  236,  237,  238,  239,  240,  252,  253,  254,  255,  256,  257,  258
  259,  260,  261,  262,  263,  264,  265,  294,  295,  296,  297,  298,  299,  300,  301,  302
  303,  304,  305,  306,  307,  308,  309,  310,  328,  329,  330,  331,  332,  333,  334,  335
  336,  337,  338,  339,  340,  341,  342,  343,  344,  345,  346,  347,  348,  349,  350,  351
  352,  353,  354,  355,  356,  357,  358,  359,  360,  361,  362,  363,  364,  365,  366,  367
  368,  369,  370,  371,  372,  373,  374,  375,  376,  377,  378,  379,  380,  381,  382,  383
  384,  385,  386,  387,  388,  389,  390,  391,  392,  404,  405,  406,  407,  408,  409,  410
  466,  467,  468,  469,  470,  471,  472,  473,  474,  475,  476,  477,  478,  479,  480,  481
  482,  483,  484,  485,  486,  487,  488,  489,  490,  491,  492,  493,  516,  517,  518,  519
  520,  521,  522,  523,  524,  525,  526,  527,  528,  529,  530,  531,  532,  533,  534,  535
  536,  537,  538,  539,  540,  541,  542,  543,  544,  545,  546,  547,  548,  549,  550,  551
  552,  553,  554,  555,  556,  557,  558,  559,  560,  561,  562,  563,  564,  565,  566,  567
  568,  569,  570,  571,  572,  573,  574,  575,  576,  577,  578,  579,  580,  581,  582,  583
** ... 64 like lines cut
*Elset, elset=Set-3
    1,    2,    3,    4,    5,    6,    7,    8,    9,   10,   11,   12,   13,   14,   15,   16
   17,   18,   19,   20,   21,   22,   23,   24,   25,   26,   27,   28,   29,   30,   31,   32
   33,   34,   35,   36,   37,   38,   39,   40,  161,  162,  163,  164,  165,  166,  167,  168
  257,  258,  259,  260,  261,  262,  263,  264,  697,  698,  699,  700,  701,  702,  703,  704
  705,  706,  707,  708,  709,  710,  711,  712,  713,  714,  715,  716,  717,  718,  719,  720
  721,  722,  723,  724,  725,  726,  727,  728,  729,  730,  731,  732,  733,  734,  735,  736
  737,  738,  739,  740,  741,  742,  743,  744,  745,  746,  747,  748,  749,  750,  751,  752
  753,  754,  755,  756,  757,  758,  759,  760,  761,  762,  763,  764,  765,  766,  767,  768
  769,  770,  771,  772,  773,  774,  775,  776,  777,  778,  779,  780,  781,  782,  783,  784
  785,  786,  787,  788,  789,  790,  791,  792,  793,  794,  795,  796,  797,  798,  799,  800
  801,  802,  803,  804,  805,  806,  807,  808,  809,  810,  811,  812,  813,  814,  815,  816
  817,  818,  819,  820,  821,  822,  823,  824,  825,  826,  827,  828,  829,  830,  831,  832
  833,  834,  835,  836,  837,  838,  839,  840,  865,  866,  867,  868,  869,  870,  871,  872
 1025, 1026, 1027, 1028, 1029, 1030, 1031, 1032, 1057, 1058, 1059, 1060, 1061, 1062, 1063, 1064
 1065, 1066, 1067, 1068, 1069, 1070, 1071, 1072, 1073, 1074, 1075, 1076, 1077, 1078, 1079, 1080
 1081, 1082, 1083, 1084, 1085, 1086, 1087, 1088, 1089, 1090, 1091, 1092, 1093, 1094, 1095, 1096
 1097, 1098, 1099, 1100, 1101, 1102, 1103, 1104, 1105, 1106, 1107, 1108, 1109, 1110, 1111, 1112
 1113, 1114, 1115, 1116, 1117, 1118, 1119, 1120, 1121, 1122, 1123, 1124, 1125, 1126, 1127, 1128
 1129, 1130, 1131, 1132, 1133, 1134, 1135, 1136, 1137, 1138, 1139, 1140, 1141, 1142, 1143, 1144
 1145, 1146, 1147, 1148, 1149, 1150, 1151, 1152, 1153, 1154, 1155, 1156, 1157, 1158, 1159, 1160
** ... 17 like lines cut
*Nset, nset=_PickedSet20, internal
  91,  95, 868, 869, 870, 871, 872, 873, 874, 875, 876, 877, 878, 879, 880, 881
 882, 883, 884, 885
*Elset, elset=_PickedSet20, internal, generate
 2368,  2512,     8
*Nset, nset=_PickedSet23, internal
  81,  89, 818, 819, 820, 821, 822, 823, 824, 825, 826, 827, 828, 829, 830, 831
 832, 833, 834, 835
*Elset, elset=_PickedSet23, internal, generate
 2169,  2313,     8
*Elset, elset=_Surf-1_S2, internal, generate
 2361,  2512,     1
*Surface, type=ELEMENT, name=Surf-1
_Surf-1_S2, S2
*Elset, elset=__PickedSurf22_S3, internal, generate
 2169,  2320,     1
*Surface, type=ELEMENT, name=_PickedSurf22, internal
__PickedSurf22_S3, S3
*Distribution, name=Ori-2-DiscOrient, location=ELEMENT, Table=Ori-2-DiscOrient_Table
** Description: Distribution generated from Discrete Orientation
,           1.,           0.,           0.,           0.,           1.,           0.
1,           0.,           0.,           1.,          -1.,           0.,           0.
2,           0.,           0.,           1.,          -1.,           0.,           0.
3,           0.,           0.,           1.,          -1.,           0.,           0.
4,           0.,           0.,           1.,          -1.,           0.,           0.
5,           0.,           0.,           1.,          -1.,           0.,           0.
6,           0.,           0.,           1.,          -1.,           0.,           0.
7,           0.,           0.,           1.,          -1.,           0.,           0.
8,           0.,           0.,           1.,          -1.,           0.,           0.
9,           0.,           0.,           1.,          -1.,           0.,           0.
10,           0.,           0.,           1.,          -1.,           0.,           0.
11,           0.,           0.,           1.,          -1.,           0.,           0.
12,           0.,           0.,           1.,          -1.,           0.,           0.
13,           0.,           0.,           1.,          -1.,           0.,           0.
14,           0.,           0.,           1.,          -1.,           0.,           0.
15,           0.,           0.,           1.,          -1.,           0.,           0.
16,           0.,           0.,           1.,          -1.,           0.,           0.
17,           0.,           0.,           1.,          -1.,           0.,           0.
18,           0.,           0.,           1.,          -1.,           0.,           0.
19,           0.,           0.,           1.,          -1.,           0.,           0.
20,           0.,           0.,           1.,          -1.,           0.,           0.
** ... 564 like lines cut
*Orientation, name=Ori-2, system=RECTANGULAR
Ori-2-DiscOrient
1, 0.
** Section: top
*Solid Section, elset=Set-3, orientation=Ori-2, material=fiber
,
*Orientation, name=Ori-3
1., 0., 0., 0., 1., 0.
1, 0.
** Section: foam
*Solid Section, elset=Set-2, orientation=Ori-3, material=foam
,
*Distribution, name=Ori-1-DiscOrient, location=ELEMENT, Table=Ori-1-DiscOrient_Table
** Description: Distribution generated from Discrete Orientation
,           1.,           0.,           0.,           0.,           1.,           0.
193,           0.,           0.,           1.,           1.,           0.,           0.
194,           0.,           0.,           1.,           1.,           0.,           0.
195,           0.,           0.,           1.,           1.,           0.,           0.
196,           0.,           0.,           1.,           1.,           0.,           0.
197,           0.,           0.,           1.,           1.,           0.,           0.
198,           0.,           0.,           1.,           1.,           0.,           0.
199,           0.,           0.,           1.,           1.,           0.,           0.
200,           0.,           0.,           1.,           1.,           0.,           0.
201,           0.,           0.,           1.,           1.,           0.,           0.
202,           0.,           0.,           1.,           1.,           0.,           0.
203,           0.,           0.,           1.,           1.,           0.,           0.
204,           0.,           0.,           1.,           1.,           0.,           0.
205,           0.,           0.,           1.,           1.,           0.,           0.
206,           0.,           0.,           1.,           1.,           0.,           0.
207,           0.,           0.,           1.,           1.,           0.,           0.
208,           0.,           0.,           1.,           1.,           0.,           0.
209,           0.,           0.,           1.,           1.,           0.,           0.
210,           0.,           0.,           1.,           1.,           0.,           0.
211,           0.,           0.,           1.,           1.,           0.,           0.
212,           0.,           0.,           1.,           1.,           0.,           0.
** ... 564 like lines cut
*Orientation, name=Ori-1, system=RECTANGULAR
Ori-1-DiscOrient
1, 0.
** Section: top
*Solid Section, elset=Set-1, orientation=Ori-1, material=fiber
,
*End Part
**  
*Part, name=roller
*End Part
**  
**
** ASSEMBLY
**
*Assembly, name=Assembly
**  
*Instance, name=Part-1-1, part=Part-1
*End Instance
**  
*Instance, name=roller-1, part=roller
         15.,         -7.5,          25.
         15.,         -7.5,          25.,          15.,         -7.5, 26.0000000126881, 89.9999992730282
*Surface, type=REVOLUTION, name=Surf-18
START,           5.,          15.
 LINE,           5.,         -15.
*End Instance
**  
*Instance, name=roller-2, part=roller
         15.,        16.75,         108.
         15.,        16.75,         108.,          15.,        16.75, 109.000000012688, 89.9999992730282
*Surface, type=REVOLUTION, name=m_Surf-5
START,           5.,          15.
 LINE,           5.,         -15.
*End Instance
**  
*Instance, name=roller-3, part=roller
         15.,        16.75,         191.
         15.,        16.75,         191.,          15.,        16.75, 192.000000012688, 89.9999992730282
*Surface, type=REVOLUTION, name=m_Surf-3
START,           5.,          15.
 LINE,           5.,         -15.
*End Instance
**  
*Instance, name=roller-4, part=roller
         15.,        -7.25,         275.
         15.,        -7.25,         275.,          15.,        -7.25, 276.000000012688, 89.9999992730282
*Surface, type=REVOLUTION, name=Surf-17
START,           5.,          15.
 LINE,           5.,         -15.
*End Instance
**  
*Node
      1,         100.,           0.,         200.
*Node
      2,         100.,           0.,         200.
*Node
      3,         100.,           0.,         300.
*Node
      4,          30.,       -12.25,         275.
*Node
      5,          30.,        21.75,         191.
*Node
      6,          30.,        21.75,         108.
*Node
      7,          30.,        -12.5,          25.
*Nset, nset=Set-3
 3,
*Nset, nset=Set-8
 4,
*Nset, nset=Set-9
 7,
*Nset, nset=Set-10
 5,
*Nset, nset=Set-11
 6,
*Nset, nset=_PickedSet37, internal
 4,
*Nset, nset=_PickedSet42, internal
 5,
*Nset, nset=_PickedSet44, internal
 6,
*Nset, nset=_PickedSet46, internal
 7,
*Nset, nset=_PickedSet77, internal
 4,
*Nset, nset=_PickedSet78, internal
 7,
*Nset, nset=_PickedSet79, internal
 5,
*Nset, nset=_PickedSet80, internal
 6,
*Elset, elset=_s_Surf-1_S3, internal, instance=Part-1-1
 2633, 2634, 2635, 2636, 2637, 2638, 2639, 2640, 2641, 2642, 2643, 2644, 2645, 2646, 2647, 2648
 2649, 2650, 2651, 2652, 2653, 2654, 2655, 2656, 2657, 2658, 2659, 2660, 2661, 2662, 2663, 2664
 2665, 2666, 2667, 2668, 2669, 2670, 2671, 2672, 2697, 2698, 2699, 2700, 2701, 2702, 2703, 2704
*Surface, type=ELEMENT, name=s_Surf-1
_s_Surf-1_S3, S3
*Elset, elset=_s_Surf-3_S2, internal, instance=Part-1-1, generate
 2353,  2512,     1
*Elset, elset=_s_Surf-3_S5, internal, instance=Part-1-1, generate
 2753,  2760,     1
*Surface, type=ELEMENT, name=s_Surf-3
_s_Surf-3_S2, S2
_s_Surf-3_S5, S5
*Elset, elset=_s_Surf-5_S5, internal, instance=Part-1-1, generate
 2905,  2912,     1
*Elset, elset=_s_Surf-5_S2, internal, instance=Part-1-1, generate
  873,  1024,     1
*Surface, type=ELEMENT, name=s_Surf-5
_s_Surf-5_S5, S5
_s_Surf-5_S2, S2
*Elset, elset=_s_Surf-7_S5, internal, instance=Part-1-1
   1,   2,   3,   4,   5,   6,   7,   8,   9,  10,  11,  12,  13,  14,  15,  16
  17,  18,  19,  20,  21,  22,  23,  24,  25,  26,  27,  28,  29,  30,  31,  32
  33,  34,  35,  36,  37,  38,  39,  40, 161, 162, 163, 164, 165, 166, 167, 168
*Surface, type=ELEMENT, name=s_Surf-7
_s_Surf-7_S5, S5
*Elset, elset=_s_Surf-9_S3, internal, instance=Part-1-1
 1705, 1706, 1707, 1708, 1709, 1710, 1711, 1712, 2697, 2698, 2699, 2700, 2701, 2702, 2703, 2704
*Surface, type=ELEMENT, name=s_Surf-9
_s_Surf-9_S3, S3
*Elset, elset=_s_Surf-11_S2, internal, instance=Part-1-1, generate
 1673,  1680,     1
*Elset, elset=_s_Surf-11_S5, internal, instance=Part-1-1, generate
 2753,  2760,     1
*Surface, type=ELEMENT, name=s_Surf-11
_s_Surf-11_S2, S2
_s_Surf-11_S5, S5
*Elset, elset=_s_Surf-13_S5, internal, instance=Part-1-1, generate
 2905,  2912,     1
*Elset, elset=_s_Surf-13_S6, internal, instance=Part-1-1, generate
 1665,  1672,     1
*Surface, type=ELEMENT, name=s_Surf-13
_s_Surf-13_S5, S5
_s_Surf-13_S6, S6
*Elset, elset=_s_Surf-15_S3, internal, instance=Part-1-1, generate
 257,  264,    1
*Elset, elset=_s_Surf-15_S5, internal, instance=Part-1-1, generate
 161,  168,    1
*Surface, type=ELEMENT, name=s_Surf-15
_s_Surf-15_S3, S3
_s_Surf-15_S5, S5
*Elset, elset=__PickedSurf65_S3, internal, instance=Part-1-1
 1705, 1706, 1707, 1708, 1709, 1710, 1711, 1712, 2633, 2634, 2635, 2636, 2637, 2638, 2639, 2640
 2641, 2642, 2643, 2644, 2645, 2646, 2647, 2648, 2649, 2650, 2651, 2652, 2653, 2654, 2655, 2656
 2657, 2658, 2659, 2660, 2661, 2662, 2663, 2664, 2665, 2666, 2667, 2668, 2669, 2670, 2671, 2672
 2697, 2698, 2699, 2700, 2701, 2702, 2703, 2704
*Surface, type=ELEMENT, name=_PickedSurf65, internal
__PickedSurf65_S3, S3
*Elset, elset=__PickedSurf67_S2, internal, instance=Part-1-1, generate
 1673,  1680,     1
*Elset, elset=__PickedSurf67_S5, internal, instance=Part-1-1, generate
 2753,  2760,     1
*Surface, type=ELEMENT, name=_PickedSurf67, internal
__PickedSurf67_S2, S2
__PickedSurf67_S5, S5
*Elset, elset=__PickedSurf69_S5, internal, instance=Part-1-1, generate
 2905,  2912,     1
*Elset, elset=__PickedSurf69_S6, internal, instance=Part-1-1, generate
 1665,  1672,     1
*Surface, type=ELEMENT, name=_PickedSurf69, internal
__PickedSurf69_S5, S5
__PickedSurf69_S6, S6
*Elset, elset=__PickedSurf71_S3, internal, instance=Part-1-1, generate
 257,  264,    1
*Elset, elset=__PickedSurf71_S5, internal, instance=Part-1-1, generate
 161,  168,    1
*Surface, type=ELEMENT, name=_PickedSurf71, internal
__PickedSurf71_S3, S3
__PickedSurf71_S5, S5
** Constraint: Constraint-3
*Rigid Body, ref node=_PickedSet37, analytical surface=roller-4.Surf-17
** Constraint: Constraint-4
*Rigid Body, ref node=_PickedSet42, analytical surface=roller-3.m_Surf-3
** Constraint: Constraint-5
*Rigid Body, ref node=_PickedSet44, analytical surface=roller-2.m_Surf-5
** Constraint: Constraint-6
*Rigid Body, ref node=_PickedSet46, analytical surface=roller-1.Surf-18
*End Assembly
*Distribution Table, name=Ori-2-DiscOrient_Table
coord3D, coord3D
*Distribution Table, name=Ori-1-DiscOrient_Table
coord3D, coord3D
** 
** MATERIALS
** 
*Material, name=fiber
*Elastic, type=ENGINEERING CONSTANTS
130000.,10000.,10000.,  0.28,  0.28,   0.5, 4500., 4500.
 3500.,
*Material, name=foam
*Elastic, type=ENGINEERING CONSTANTS
100., 100., 100.,  0.3,  0.3,  0.3, 38.5, 38.5
 38.5,
** 
** INTERACTION PROPERTIES
** 
*Surface Interaction, name=Contact-properties
1.,
** 
** BOUNDARY CONDITIONS
** 
** Name: BC-1 Type: Symmetry/Antisymmetry/Encastre
*Boundary
_PickedSet77, ENCASTRE
** Name: BC-2 Type: Symmetry/Antisymmetry/Encastre
*Boundary
_PickedSet78, ENCASTRE
** Name: BC-3 Type: Displacement/Rotation
*Boundary
_PickedSet79, 1, 1
_PickedSet79, 2, 2
_PickedSet79, 3, 3
_PickedSet79, 4, 4
_PickedSet79, 5, 5
_PickedSet79, 6, 6
** Name: BC-4 Type: Displacement/Rotation
*Boundary
_PickedSet80, 1, 1
_PickedSet80, 2, 2
_PickedSet80, 3, 3
_PickedSet80, 4, 4
_PickedSet80, 5, 5
_PickedSet80, 6, 6
** 
** INTERACTIONS
** 
** Interaction: Int-1
*Contact Pair, interaction=Contact-properties, type=SURFACE TO SURFACE
_PickedSurf65, roller-4.Surf-17
** Interaction: Int-2
*Contact Pair, interaction=Contact-properties, type=SURFACE TO SURFACE
_PickedSurf67, roller-3.m_Surf-3
** Interaction: Int-3
*Contact Pair, interaction=Contact-properties, type=SURFACE TO SURFACE
_PickedSurf69, roller-2.m_Surf-5
** Interaction: Int-4
*Contact Pair, interaction=Contact-properties, type=SURFACE TO SURFACE
_PickedSurf71, roller-1.Surf-18
** ----------------------------------------------------------------
** 
** STEP: Step-1
** 
*Step, name=Step-1, nlgeom=NO
*Static
1., 1., 1e-05, 1.
** 
** BOUNDARY CONDITIONS
** 
** Name: BC-3 Type: Displacement/Rotation
*Boundary
_PickedSet79, 2, 2, -10.
** Name: BC-4 Type: Displacement/Rotation
*Boundary
_PickedSet80, 2, 2, -10.
** 
** OUTPUT REQUESTS
** 
*Restart, write, frequency=0
** 
** FIELD OUTPUT: F-Output-1
** 
*Output, field, variable=PRESELECT
** 
** HISTORY OUTPUT: H-Output-1
** 
*Output, history, variable=PRESELECT
*End Step
