*Heading
** Job name: Job-1 Model name: Pipe
** Generated by: Abaqus/CAE 2022
*Preprint, echo=NO, model=NO, history=NO, contact=NO
**
** PARTS
**
*Part, name=pipe
*Node
      1,           0.,   10.0773296,           0.
      2,           0.,  -10.0773296,           0.
      3,           0.,        -12.5,           0.
      4,           0.,         12.5,           0.
      5,           2.,  -10.0773296,           0.
      6,           2.,        -12.5,           0.
      7,           2.,         12.5,           0.
      8,           2.,   10.0773296,           0.
      9,           0.,   7.65466022,           0.
     10,           0.,  -7.65466022,           0.
     11,           2.,   7.65466022,           0.
     12,           2.,  -7.65466022,           0.
     13,           0.,   10.0639687,   0.51876837
     14,           0.,   10.0239191,   1.03616107
     15,           0.,   9.95728779,   1.55080616
     16,           0.,   9.86425209,   2.06133866
     17,           0.,   9.74505711,   2.56640482
     18,           0.,   9.60002136,   3.06466556
     19,           0.,   9.42952728,   3.55479908
     20,           0.,   9.23402786,   4.03550625
** ... 3390 like lines cut
*Element, type=C3D8R
   1,  274,  927, 1971,  903,    1,   13,  423,  140
   2,  927,  928, 1972, 1971,   13,   14,  424,  423
   3,  928,  929, 1973, 1972,   14,   15,  425,  424
   4,  929,  930, 1974, 1973,   15,   16,  426,  425
   5,  930,  931, 1975, 1974,   16,   17,  427,  426
   6,  931,  932, 1976, 1975,   17,   18,  428,  427
   7,  932,  933, 1977, 1976,   18,   19,  429,  428
   8,  933,  934, 1978, 1977,   19,   20,  430,  429
   9,  934,  935, 1979, 1978,   20,   21,  431,  430
  10,  935,  936, 1980, 1979,   21,   22,  432,  431
  11,  936,  937, 1981, 1980,   22,   23,  433,  432
  12,  937,  938, 1982, 1981,   23,   24,  434,  433
  13,  938,  939, 1983, 1982,   24,   25,  435,  434
  14,  939,  940, 1984, 1983,   25,   26,  436,  435
  15,  940,  941, 1985, 1984,   26,   27,  437,  436
  16,  941,  942, 1986, 1985,   27,   28,  438,  437
  17,  942,  943, 1987, 1986,   28,   29,  439,  438
  18,  943,  944, 1988, 1987,   29,   30,  440,  439
  19,  944,  945, 1989, 1988,   30,   31,  441,  440
  20,  945,  946, 1990, 1989,   31,   32,  442,  441
** ... 2420 like lines cut
*Nset, nset=Set-1
    1,    2,    5,    8,    9,   10,   11,   12,   13,   14,   15,   16,   17,   18,   19,   20
   21,   22,   23,   24,   25,   26,   27,   28,   29,   30,   31,   32,   33,   34,   35,   36
   37,   38,   39,   40,   41,   42,   43,   44,   45,   46,   47,   48,   49,   50,   51,   52
   53,   54,   55,   56,   57,   58,   59,   60,   61,   62,   63,   64,   65,   66,   67,   68
   69,   70,   71,   72,  141,  142,  143,  144,  145,  146,  147,  148,  149,  150,  151,  152
  153,  154,  155,  156,  157,  158,  159,  160,  161,  162,  163,  164,  165,  166,  167,  168
  169,  170,  171,  172,  173,  174,  175,  176,  177,  178,  179,  180,  181,  182,  183,  184
  185,  186,  187,  188,  189,  190,  191,  192,  193,  194,  195,  196,  197,  198,  199,  200
  272,  273,  274,  278,  279,  280,  281,  282,  283,  284,  285,  286,  287,  288,  289,  290
  291,  292,  293,  294,  295,  296,  297,  298,  299,  300,  301,  302,  303,  304,  305,  306
  307,  308,  309,  310,  311,  312,  313,  314,  315,  316,  317,  318,  319,  320,  321,  322
  323,  324,  325,  326,  327,  328,  329,  330,  331,  332,  333,  334,  335,  336,  337,  338
  339,  340,  341,  342,  343,  344,  345,  346,  347,  348,  349,  350,  351,  352,  353,  354
  355,  356,  357,  358,  359,  360,  361,  362,  363,  364,  365,  366,  367,  368,  369,  370
  371,  372,  373,  374,  375,  376,  377,  378,  379,  380,  381,  382,  383,  384,  385,  386
  387,  388,  389,  390,  391,  392,  393,  394,  395,  396,  397,  398,  399,  400,  401,  402
  403,  404,  405,  406,  407,  408,  409,  410,  411,  412,  413,  414,  415,  416,  417,  418
  419,  420,  421,  422,  927,  928,  929,  930,  931,  932,  933,  934,  935,  936,  937,  938
  939,  940,  941,  942,  943,  944,  945,  946,  947,  948,  949,  950,  951,  952,  953,  954
  955,  956,  957,  958,  959,  960,  961,  962,  963,  964,  965,  966,  967,  968,  969,  970
** ... 97 like lines cut
*Elset, elset=Set-1, generate
 1221,  2440,     1
*Nset, nset=Set-2
    1,    2,    3,    4,    5,    6,    7,    8,   13,   14,   15,   16,   17,   18,   19,   20
   21,   22,   23,   24,   25,   26,   27,   28,   29,   30,   31,   32,   33,   34,   35,   36
   37,   38,   39,   40,   41,   42,   43,   44,   45,   46,   47,   48,   49,   50,   51,   52
   53,   54,   55,   56,   57,   58,   59,   60,   61,   62,   63,   64,   65,   66,   67,   68
   69,   70,   71,   72,   73,   74,   75,   76,   77,   78,   79,   80,   81,   82,   83,   84
   85,   86,   87,   88,   89,   90,   91,   92,   93,   94,   95,   96,   97,   98,   99,  100
  101,  102,  103,  104,  105,  106,  107,  108,  109,  110,  111,  112,  113,  114,  115,  116
  117,  118,  119,  120,  121,  122,  123,  124,  125,  126,  127,  128,  129,  130,  131,  132
  133,  134,  135,  136,  137,  138,  139,  140,  141,  142,  143,  144,  145,  146,  147,  148
  149,  150,  151,  152,  153,  154,  155,  156,  157,  158,  159,  160,  161,  162,  163,  164
  165,  166,  167,  168,  169,  170,  171,  172,  173,  174,  175,  176,  177,  178,  179,  180
  181,  182,  183,  184,  185,  186,  187,  188,  189,  190,  191,  192,  193,  194,  195,  196
  197,  198,  199,  200,  201,  202,  203,  204,  205,  206,  207,  208,  209,  210,  211,  212
  213,  214,  215,  216,  217,  218,  219,  220,  221,  222,  223,  224,  225,  226,  227,  228
  229,  230,  231,  232,  233,  234,  235,  236,  237,  238,  239,  240,  241,  242,  243,  244
  245,  246,  247,  248,  249,  250,  251,  252,  253,  254,  255,  256,  257,  258,  259,  260
  261,  262,  263,  264,  265,  266,  267,  268,  269,  270,  271,  272,  273,  274,  275,  276
  277,  278,  279,  280,  423,  424,  425,  426,  427,  428,  429,  430,  431,  432,  433,  434
  435,  436,  437,  438,  439,  440,  441,  442,  443,  444,  445,  446,  447,  448,  449,  450
  451,  452,  453,  454,  455,  456,  457,  458,  459,  460,  461,  462,  463,  464,  465,  466
** ... 97 like lines cut
*Elset, elset=Set-2, generate
    1,  1220,     1
*Nset, nset=Set-3
   9,  10, 285, 286, 287, 288, 289, 290, 291, 292, 293, 294, 295, 296, 297, 298
 299, 300, 301, 302, 303, 304, 305, 306, 307, 308, 309, 310, 311, 312, 313, 314
 315, 316, 317, 318, 319, 320, 321, 322, 323, 324, 325, 326, 327, 328, 329, 330
 331, 332, 333, 334, 335, 336, 337, 338, 339, 340, 341, 342, 343, 344
*Elset, elset=Set-3, generate
 1465,  1525,     1
*Nset, nset=Set-5
   4,   7, 269, 270, 271
*Elset, elset=Set-5, generate
  245,  1160,   305
*Elset, elset=_Surf-1_S5, internal
  245,  246,  247,  248,  249,  250,  251,  252,  253,  254,  255,  256,  257,  258,  259,  260
  261,  262,  263,  264,  265,  266,  267,  268,  269,  270,  271,  272,  273,  274,  275,  276
  277,  278,  279,  280,  281,  282,  283,  284,  285,  286,  287,  288,  289,  290,  291,  292
  293,  294,  295,  296,  297,  298,  299,  300,  301,  302,  303,  304,  305,  550,  551,  552
  553,  554,  555,  556,  557,  558,  559,  560,  561,  562,  563,  564,  565,  566,  567,  568
  569,  570,  571,  572,  573,  574,  575,  576,  577,  578,  579,  580,  581,  582,  583,  584
  585,  586,  587,  588,  589,  590,  591,  592,  593,  594,  595,  596,  597,  598,  599,  600
  601,  602,  603,  604,  605,  606,  607,  608,  609,  610,  855,  856,  857,  858,  859,  860
  861,  862,  863,  864,  865,  866,  867,  868,  869,  870,  871,  872,  873,  874,  875,  876
  877,  878,  879,  880,  881,  882,  883,  884,  885,  886,  887,  888,  889,  890,  891,  892
  893,  894,  895,  896,  897,  898,  899,  900,  901,  902,  903,  904,  905,  906,  907,  908
  909,  910,  911,  912,  913,  914,  915, 1160, 1161, 1162, 1163, 1164, 1165, 1166, 1167, 1168
 1169, 1170, 1171, 1172, 1173, 1174, 1175, 1176, 1177, 1178, 1179, 1180, 1181, 1182, 1183, 1184
 1185, 1186, 1187, 1188, 1189, 1190, 1191, 1192, 1193, 1194, 1195, 1196, 1197, 1198, 1199, 1200
 1201, 1202, 1203, 1204, 1205, 1206, 1207, 1208, 1209, 1210, 1211, 1212, 1213, 1214, 1215, 1216
 1217, 1218, 1219, 1220
*Surface, type=ELEMENT, name=Surf-1
_Surf-1_S5, S5
*Elset, elset=_Surf-2_S5, internal
  245,  246,  247,  248,  249,  250,  251,  252,  253,  254,  255,  256,  257,  258,  259,  260
  261,  262,  263,  264,  265,  266,  267,  268,  269,  270,  271,  272,  273,  274,  275,  276
  277,  278,  279,  280,  281,  282,  283,  284,  285,  286,  287,  288,  289,  290,  291,  292
  293,  294,  295,  296,  297,  298,  299,  300,  301,  302,  303,  304,  305,  550,  551,  552
  553,  554,  555,  556,  557,  558,  559,  560,  561,  562,  563,  564,  565,  566,  567,  568
  569,  570,  571,  572,  573,  574,  575,  576,  577,  578,  579,  580,  581,  582,  583,  584
  585,  586,  587,  588,  589,  590,  591,  592,  593,  594,  595,  596,  597,  598,  599,  600
  601,  602,  603,  604,  605,  606,  607,  608,  609,  610,  855,  856,  857,  858,  859,  860
  861,  862,  863,  864,  865,  866,  867,  868,  869,  870,  871,  872,  873,  874,  875,  876
  877,  878,  879,  880,  881,  882,  883,  884,  885,  886,  887,  888,  889,  890,  891,  892
  893,  894,  895,  896,  897,  898,  899,  900,  901,  902,  903,  904,  905,  906,  907,  908
  909,  910,  911,  912,  913,  914,  915, 1160, 1161, 1162, 1163, 1164, 1165, 1166, 1167, 1168
 1169, 1170, 1171, 1172, 1173, 1174, 1175, 1176, 1177, 1178, 1179, 1180, 1181, 1182, 1183, 1184
 1185, 1186, 1187, 1188, 1189, 1190, 1191, 1192, 1193, 1194, 1195, 1196, 1197, 1198, 1199, 1200
 1201, 1202, 1203, 1204, 1205, 1206, 1207, 1208, 1209, 1210, 1211, 1212, 1213, 1214, 1215, 1216
 1217, 1218, 1219, 1220
*Surface, type=ELEMENT, name=Surf-2
_Surf-2_S5, S5
*Distribution, name=Ori-2-DiscOrient, location=ELEMENT, Table=Ori-2-DiscOrient_Table
** Description: Distribution generated from Discrete Orientation
,           1.,           0.,           0.,           0.,           1.,           0.
1,           1.,           0.,           0.,           0., 0.0257479101419449, -0.999668478965759
2,           1.,           0.,           0.,           0., 0.077175460755825, -0.997017502784729
3,           1.,           0.,           0.,           0., 0.12839837372303, -0.991722762584686
4,           1.,           0.,           0.,           0., 0.179280757904053, -0.983797967433929
5,           1.,           0.,           0.,           0., 0.229687750339508, -0.973264396190643
6,           1.,           0.,           0.,           0., 0.279485613107681, -0.960149884223938
7,           1.,           0.,           0.,           0., 0.328542351722717, -0.944489240646362
8,           1.,           0.,           0.,           0., 0.376727908849716, -0.92632395029068
9,           1.,           0.,           0.,           0., 0.42391437292099, -0.905702292919159
10,           1.,           0.,           0.,           0., 0.469976782798767, -0.882678806781769
11,           1.,           0.,           0.,           0., 0.514792799949646, -0.857314646244049
12,           1.,           0.,           0.,           0., 0.558243691921234, -0.829677045345306
13,           1.,           0.,           0.,           0., 0.600214302539825, -0.79983925819397
14,           1.,           0.,           0.,           0., 0.64059317111969, -0.767880439758301
15,           1.,           0.,           0.,           0., 0.679273307323456, -0.733885407447815
16,           1.,           0.,           0.,           0., 0.716152191162109, -0.697944164276123
17,           1.,           0.,           0.,           0., 0.751131951808929, -0.66015213727951
18,           1.,           0.,           0.,           0., 0.784119784832001, -0.620609521865845
19,           1.,           0.,           0.,           0., 0.815028309822083, -0.579421103000641
20,           1.,           0.,           0.,           0., 0.843775510787964, -0.536696255207062
** ... 1200 like lines cut
*Orientation, name=Ori-2, system=RECTANGULAR
Ori-2-DiscOrient
1, 0.
** Section: Section-2
*Solid Section, elset=Set-2, orientation=Ori-2, material=Carbon/Epoxy(a)
,
*Distribution, name=Ori-1-DiscOrient, location=ELEMENT, Table=Ori-1-DiscOrient_Table
** Description: Distribution generated from Discrete Orientation
,           1.,           0.,           0.,           0.,           1.,           0.
1221,           0., -0.02574791200459, -0.999668478965759,           1.,           0.,           0.
1222,           0., -0.077175460755825, -0.997017502784729,           1.,           0.,           0.
1223,           0., -0.128398343920708, -0.991722702980042,           1.,           0.,           0.
1224,           0., -0.179280772805214, -0.983797967433929,           1.,           0.,           0.
1225,           0., -0.229687765240669, -0.973264396190643,           1.,           0.,           0.
1226,           0., -0.279485613107681, -0.960149884223938,           1.,           0.,           0.
1227,           0., -0.328542351722717, -0.944489240646362,           1.,           0.,           0.
1228,           0., -0.376727908849716, -0.92632395029068,           1.,           0.,           0.
1229,           0., -0.42391437292099, -0.905702292919159,           1.,           0.,           0.
1230,           0., -0.469976723194122, -0.882678806781769,           1.,           0.,           0.
1231,           0., -0.514792859554291, -0.857314586639404,           1.,           0.,           0.
1232,           0., -0.558243691921234, -0.829677045345306,           1.,           0.,           0.
1233,           0., -0.600214302539825, -0.799839198589325,           1.,           0.,           0.
1234,           0., -0.64059317111969, -0.767880439758301,           1.,           0.,           0.
1235,           0., -0.679273307323456, -0.733885407447815,           1.,           0.,           0.
1236,           0., -0.716152191162109, -0.697944164276123,           1.,           0.,           0.
1237,           0., -0.751131892204285, -0.66015213727951,           1.,           0.,           0.
1238,           0., -0.784119784832001, -0.6206094622612,           1.,           0.,           0.
1239,           0., -0.815028369426727, -0.579421043395996,           1.,           0.,           0.
1240,           0., -0.843775570392609, -0.536696195602417,           1.,           0.,           0.
** ... 1200 like lines cut
*Orientation, name=Ori-1, system=RECTANGULAR
Ori-1-DiscOrient
1, 0.
** Section: Section-1
*Solid Section, elset=Set-1, orientation=Ori-1, material=Carbon/Epoxy(a)
,
*End Part
**  
**
** ASSEMBLY
**
*Assembly, name=Assembly
**  
*Instance, name=pipe-1, part=pipe
*End Instance
**  
*Node
      1,           0.,           0., -6.17058473e-16
*Node
      2,           2.,           0., 6.17058473e-16
*Node
      3,           0.,           0., -6.17058473e-16
*Node
      4,           0.,           0., -6.17058473e-16
*Nset, nset=Set-3, instance=pipe-1
    1,    2,    3,    4,    5,    6,    7,    8,    9,   10,   11,   12,   73,   74,   75,   76
  137,  138,  139,  140,  201,  202,  203,  204,  265,  266,  267,  268,  269,  270,  271,  272
  273,  274,  275,  276,  277,  278,  279,  280,  281,  282,  283,  284,  345,  346,  347,  348
  349,  350,  351,  352,  413,  414,  415,  416,  417,  418,  419,  420,  421,  422,  903,  904
  905,  906,  907,  908,  909,  910,  911,  912,  913,  914,  915,  916,  917,  918,  919,  920
  921,  922,  923,  924,  925,  926, 1767, 1768, 1769, 1770, 1771, 1772, 1773, 1774, 1775, 1776
 1777, 1778, 1779, 1780, 1781, 1782, 1783, 1784, 1785, 1786, 1787, 1788, 1789, 1790
*Elset, elset=Set-3, instance=pipe-1
    1,   61,   62,  122,  123,  183,  184,  244,  245,  305,  306,  366,  367,  427,  428,  488
  489,  549,  550,  610,  611,  671,  672,  732,  733,  793,  794,  854,  855,  915,  916,  976
  977, 1037, 1038, 1098, 1099, 1159, 1160, 1220, 1221, 1281, 1282, 1342, 1343, 1403, 1404, 1464
 1465, 1525, 1526, 1586, 1587, 1647, 1648, 1708, 1709, 1769, 1770, 1830, 1831, 1891, 1892, 1952
 1953, 2013, 2014, 2074, 2075, 2135, 2136, 2196, 2197, 2257, 2258, 2318, 2319, 2379, 2380, 2440
*Nset, nset=Set-4, instance=pipe-1
    1,    2,    3,    4,    9,   10,   13,   14,   15,   16,   17,   18,   19,   20,   21,   22
   23,   24,   25,   26,   27,   28,   29,   30,   31,   32,   33,   34,   35,   36,   37,   38
   39,   40,   41,   42,   43,   44,   45,   46,   47,   48,   49,   50,   51,   52,   53,   54
   55,   56,   57,   58,   59,   60,   61,   62,   63,   64,   65,   66,   67,   68,   69,   70
   71,   72,   73,   74,   75,   76,   77,   78,   79,   80,   81,   82,   83,   84,   85,   86
   87,   88,   89,   90,   91,   92,   93,   94,   95,   96,   97,   98,   99,  100,  101,  102
  103,  104,  105,  106,  107,  108,  109,  110,  111,  112,  113,  114,  115,  116,  117,  118
  119,  120,  121,  122,  123,  124,  125,  126,  127,  128,  129,  130,  131,  132,  133,  134
  135,  136,  137,  138,  139,  140,  281,  282,  283,  284,  285,  286,  287,  288,  289,  290
  291,  292,  293,  294,  295,  296,  297,  298,  299,  300,  301,  302,  303,  304,  305,  306
  307,  308,  309,  310,  311,  312,  313,  314,  315,  316,  317,  318,  319,  320,  321,  322
  323,  324,  325,  326,  327,  328,  329,  330,  331,  332,  333,  334,  335,  336,  337,  338
  339,  340,  341,  342,  343,  344,  345,  346,  347,  348,  423,  424,  425,  426,  427,  428
  429,  430,  431,  432,  433,  434,  435,  436,  437,  438,  439,  440,  441,  442,  443,  444
  445,  446,  447,  448,  449,  450,  451,  452,  453,  454,  455,  456,  457,  458,  459,  460
  461,  462,  463,  464,  465,  466,  467,  468,  469,  470,  471,  472,  473,  474,  475,  476
  477,  478,  479,  480,  481,  482,  483,  484,  485,  486,  487,  488,  489,  490,  491,  492
  493,  494,  495,  496,  497,  498,  499,  500,  501,  502,  503,  504,  505,  506,  507,  508
  509,  510,  511,  512,  513,  514,  515,  516,  517,  518,  519,  520,  521,  522,  523,  524
  525,  526,  527,  528,  529,  530,  531,  532,  533,  534,  535,  536,  537,  538,  539,  540
** ... 23 like lines cut
*Elset, elset=Set-4, instance=pipe-1
    1,    2,    3,    4,    5,    6,    7,    8,    9,   10,   11,   12,   13,   14,   15,   16
   17,   18,   19,   20,   21,   22,   23,   24,   25,   26,   27,   28,   29,   30,   31,   32
   33,   34,   35,   36,   37,   38,   39,   40,   41,   42,   43,   44,   45,   46,   47,   48
   49,   50,   51,   52,   53,   54,   55,   56,   57,   58,   59,   60,   61,   62,   63,   64
   65,   66,   67,   68,   69,   70,   71,   72,   73,   74,   75,   76,   77,   78,   79,   80
   81,   82,   83,   84,   85,   86,   87,   88,   89,   90,   91,   92,   93,   94,   95,   96
   97,   98,   99,  100,  101,  102,  103,  104,  105,  106,  107,  108,  109,  110,  111,  112
  113,  114,  115,  116,  117,  118,  119,  120,  121,  122,  123,  124,  125,  126,  127,  128
  129,  130,  131,  132,  133,  134,  135,  136,  137,  138,  139,  140,  141,  142,  143,  144
  145,  146,  147,  148,  149,  150,  151,  152,  153,  154,  155,  156,  157,  158,  159,  160
  161,  162,  163,  164,  165,  166,  167,  168,  169,  170,  171,  172,  173,  174,  175,  176
  177,  178,  179,  180,  181,  182,  183,  184,  185,  186,  187,  188,  189,  190,  191,  192
  193,  194,  195,  196,  197,  198,  199,  200,  201,  202,  203,  204,  205,  206,  207,  208
  209,  210,  211,  212,  213,  214,  215,  216,  217,  218,  219,  220,  221,  222,  223,  224
  225,  226,  227,  228,  229,  230,  231,  232,  233,  234,  235,  236,  237,  238,  239,  240
  241,  242,  243,  244,  245,  246,  247,  248,  249,  250,  251,  252,  253,  254,  255,  256
  257,  258,  259,  260,  261,  262,  263,  264,  265,  266,  267,  268,  269,  270,  271,  272
  273,  274,  275,  276,  277,  278,  279,  280,  281,  282,  283,  284,  285,  286,  287,  288
  289,  290,  291,  292,  293,  294,  295,  296,  297,  298,  299,  300,  301,  302,  303,  304
  305, 1221, 1222, 1223, 1224, 1225, 1226, 1227, 1228, 1229, 1230, 1231, 1232, 1233, 1234, 1235
** ... 19 like lines cut
*Nset, nset=Set-5, instance=pipe-1
   3,   6, 275, 276, 277
*Elset, elset=Set-5, instance=pipe-1, generate
  305,  1220,   305
*Nset, nset=Set-6
 2,
*Nset, nset=set-rp
 2,
*Nset, nset="set-x=L", instance=pipe-1
    5,    6,    7,    8,   11,   12,  141,  142,  143,  144,  145,  146,  147,  148,  149,  150
  151,  152,  153,  154,  155,  156,  157,  158,  159,  160,  161,  162,  163,  164,  165,  166
  167,  168,  169,  170,  171,  172,  173,  174,  175,  176,  177,  178,  179,  180,  181,  182
  183,  184,  185,  186,  187,  188,  189,  190,  191,  192,  193,  194,  195,  196,  197,  198
  199,  200,  201,  202,  203,  204,  205,  206,  207,  208,  209,  210,  211,  212,  213,  214
  215,  216,  217,  218,  219,  220,  221,  222,  223,  224,  225,  226,  227,  228,  229,  230
  231,  232,  233,  234,  235,  236,  237,  238,  239,  240,  241,  242,  243,  244,  245,  246
  247,  248,  249,  250,  251,  252,  253,  254,  255,  256,  257,  258,  259,  260,  261,  262
  263,  264,  265,  266,  267,  268,  349,  350,  351,  352,  353,  354,  355,  356,  357,  358
  359,  360,  361,  362,  363,  364,  365,  366,  367,  368,  369,  370,  371,  372,  373,  374
  375,  376,  377,  378,  379,  380,  381,  382,  383,  384,  385,  386,  387,  388,  389,  390
  391,  392,  393,  394,  395,  396,  397,  398,  399,  400,  401,  402,  403,  404,  405,  406
  407,  408,  409,  410,  411,  412,  413,  414,  415,  416,  663,  664,  665,  666,  667,  668
  669,  670,  671,  672,  673,  674,  675,  676,  677,  678,  679,  680,  681,  682,  683,  684
  685,  686,  687,  688,  689,  690,  691,  692,  693,  694,  695,  696,  697,  698,  699,  700
  701,  702,  703,  704,  705,  706,  707,  708,  709,  710,  711,  712,  713,  714,  715,  716
  717,  718,  719,  720,  721,  722,  723,  724,  725,  726,  727,  728,  729,  730,  731,  732
  733,  734,  735,  736,  737,  738,  739,  740,  741,  742,  743,  744,  745,  746,  747,  748
  749,  750,  751,  752,  753,  754,  755,  756,  757,  758,  759,  760,  761,  762,  763,  764
  765,  766,  767,  768,  769,  770,  771,  772,  773,  774,  775,  776,  777,  778,  779,  780
** ... 23 like lines cut
*Elset, elset="set-x=L", instance=pipe-1
  916,  917,  918,  919,  920,  921,  922,  923,  924,  925,  926,  927,  928,  929,  930,  931
  932,  933,  934,  935,  936,  937,  938,  939,  940,  941,  942,  943,  944,  945,  946,  947
  948,  949,  950,  951,  952,  953,  954,  955,  956,  957,  958,  959,  960,  961,  962,  963
  964,  965,  966,  967,  968,  969,  970,  971,  972,  973,  974,  975,  976,  977,  978,  979
  980,  981,  982,  983,  984,  985,  986,  987,  988,  989,  990,  991,  992,  993,  994,  995
  996,  997,  998,  999, 1000, 1001, 1002, 1003, 1004, 1005, 1006, 1007, 1008, 1009, 1010, 1011
 1012, 1013, 1014, 1015, 1016, 1017, 1018, 1019, 1020, 1021, 1022, 1023, 1024, 1025, 1026, 1027
 1028, 1029, 1030, 1031, 1032, 1033, 1034, 1035, 1036, 1037, 1038, 1039, 1040, 1041, 1042, 1043
 1044, 1045, 1046, 1047, 1048, 1049, 1050, 1051, 1052, 1053, 1054, 1055, 1056, 1057, 1058, 1059
 1060, 1061, 1062, 1063, 1064, 1065, 1066, 1067, 1068, 1069, 1070, 1071, 1072, 1073, 1074, 1075
 1076, 1077, 1078, 1079, 1080, 1081, 1082, 1083, 1084, 1085, 1086, 1087, 1088, 1089, 1090, 1091
 1092, 1093, 1094, 1095, 1096, 1097, 1098, 1099, 1100, 1101, 1102, 1103, 1104, 1105, 1106, 1107
 1108, 1109, 1110, 1111, 1112, 1113, 1114, 1115, 1116, 1117, 1118, 1119, 1120, 1121, 1122, 1123
 1124, 1125, 1126, 1127, 1128, 1129, 1130, 1131, 1132, 1133, 1134, 1135, 1136, 1137, 1138, 1139
 1140, 1141, 1142, 1143, 1144, 1145, 1146, 1147, 1148, 1149, 1150, 1151, 1152, 1153, 1154, 1155
 1156, 1157, 1158, 1159, 1160, 1161, 1162, 1163, 1164, 1165, 1166, 1167, 1168, 1169, 1170, 1171
 1172, 1173, 1174, 1175, 1176, 1177, 1178, 1179, 1180, 1181, 1182, 1183, 1184, 1185, 1186, 1187
 1188, 1189, 1190, 1191, 1192, 1193, 1194, 1195, 1196, 1197, 1198, 1199, 1200, 1201, 1202, 1203
 1204, 1205, 1206, 1207, 1208, 1209, 1210, 1211, 1212, 1213, 1214, 1215, 1216, 1217, 1218, 1219
 1220, 2136, 2137, 2138, 2139, 2140, 2141, 2142, 2143, 2144, 2145, 2146, 2147, 2148, 2149, 2150
** ... 19 like lines cut
*Elset, elset=_Surf-1_S5, internal, instance=pipe-1
  245,  246,  247,  248,  249,  250,  251,  252,  253,  254,  255,  256,  257,  258,  259,  260
  261,  262,  263,  264,  265,  266,  267,  268,  269,  270,  271,  272,  273,  274,  275,  276
  277,  278,  279,  280,  281,  282,  283,  284,  285,  286,  287,  288,  289,  290,  291,  292
  293,  294,  295,  296,  297,  298,  299,  300,  301,  302,  303,  304,  305,  550,  551,  552
  553,  554,  555,  556,  557,  558,  559,  560,  561,  562,  563,  564,  565,  566,  567,  568
  569,  570,  571,  572,  573,  574,  575,  576,  577,  578,  579,  580,  581,  582,  583,  584
  585,  586,  587,  588,  589,  590,  591,  592,  593,  594,  595,  596,  597,  598,  599,  600
  601,  602,  603,  604,  605,  606,  607,  608,  609,  610,  855,  856,  857,  858,  859,  860
  861,  862,  863,  864,  865,  866,  867,  868,  869,  870,  871,  872,  873,  874,  875,  876
  877,  878,  879,  880,  881,  882,  883,  884,  885,  886,  887,  888,  889,  890,  891,  892
  893,  894,  895,  896,  897,  898,  899,  900,  901,  902,  903,  904,  905,  906,  907,  908
  909,  910,  911,  912,  913,  914,  915, 1160, 1161, 1162, 1163, 1164, 1165, 1166, 1167, 1168
 1169, 1170, 1171, 1172, 1173, 1174, 1175, 1176, 1177, 1178, 1179, 1180, 1181, 1182, 1183, 1184
 1185, 1186, 1187, 1188, 1189, 1190, 1191, 1192, 1193, 1194, 1195, 1196, 1197, 1198, 1199, 1200
 1201, 1202, 1203, 1204, 1205, 1206, 1207, 1208, 1209, 1210, 1211, 1212, 1213, 1214, 1215, 1216
 1217, 1218, 1219, 1220
*Surface, type=ELEMENT, name=Surf-1
_Surf-1_S5, S5
** Constraint: Constraint-1
*Equation
2
"set-x=L", 1, 1.
set-rp, 1, -1.
*End Assembly
*Distribution Table, name=Ori-2-DiscOrient_Table
coord3D, coord3D
*Distribution Table, name=Ori-1-DiscOrient_Table
coord3D, coord3D
** 
** MATERIALS
** 
*Material, name=Carbon/Epoxy(a)
*Elastic, type=ENGINEERING CONSTANTS
130000.,10000.,10000.,  0.28,  0.28,   0.5, 4500., 4500.
 3500.,
** 
** BOUNDARY CONDITIONS
** 
** Name: BC-1 Type: Displacement/Rotation
*Boundary
Set-3, 3, 3
** Name: BC-2 Type: Displacement/Rotation
*Boundary
Set-4, 1, 1
** Name: BC-3 Type: Displacement/Rotation
*Boundary
Set-5, 2, 2
** ----------------------------------------------------------------
** 
** STEP: Step-1
** 
*Step, name=Step-1, nlgeom=NO
*Static
1., 1., 1e-05, 1.
** 
** LOADS
** 
** Name: Load-1   Type: Pressure
*Dsload
Surf-1, P, 100.
** Name: Load-2   Type: Concentrated force
*Cload
Set-6, 1, -24543.7
** 
** OUTPUT REQUESTS
** 
*Restart, write, frequency=0
** 
** FIELD OUTPUT: F-Output-1
** 
*Output, field, variable=PRESELECT
** 
** HISTORY OUTPUT: H-Output-1
** 
*Output, history, variable=PRESELECT
*End Step
